* NGSPICE file created from top.ext - technology: sky130A

* Black-box entry subcircuit for sky130_fd_sc_hd__tapvpwrvgnd_1 abstract view
.subckt sky130_fd_sc_hd__tapvpwrvgnd_1 VGND VPWR
.ends

* Black-box entry subcircuit for sky130_fd_sc_hd__decap_3 abstract view
.subckt sky130_fd_sc_hd__decap_3 VGND VNB VPB VPWR
.ends

* Black-box entry subcircuit for sky130_ef_sc_hd__decap_12 abstract view
.subckt sky130_ef_sc_hd__decap_12 VPWR VGND VPB VNB
.ends

* Black-box entry subcircuit for sky130_fd_sc_hd__fill_1 abstract view
.subckt sky130_fd_sc_hd__fill_1 VGND VNB VPB VPWR
.ends

* Black-box entry subcircuit for sky130_fd_sc_hd__decap_6 abstract view
.subckt sky130_fd_sc_hd__decap_6 VGND VNB VPB VPWR
.ends

* Black-box entry subcircuit for sky130_fd_sc_hd__decap_8 abstract view
.subckt sky130_fd_sc_hd__decap_8 VGND VNB VPB VPWR
.ends

* Black-box entry subcircuit for sky130_fd_sc_hd__fill_2 abstract view
.subckt sky130_fd_sc_hd__fill_2 VGND VNB VPB VPWR
.ends

* Black-box entry subcircuit for sky130_fd_sc_hd__dfrtp_1 abstract view
.subckt sky130_fd_sc_hd__dfrtp_1 CLK D RESET_B VGND VNB VPB VPWR Q
.ends

* Black-box entry subcircuit for sky130_fd_sc_hd__decap_4 abstract view
.subckt sky130_fd_sc_hd__decap_4 VGND VNB VPB VPWR
.ends

* Black-box entry subcircuit for sky130_fd_sc_hd__a21oi_1 abstract view
.subckt sky130_fd_sc_hd__a21oi_1 A1 A2 B1 VGND VNB VPB VPWR Y
.ends

* Black-box entry subcircuit for sky130_fd_sc_hd__clkbuf_8 abstract view
.subckt sky130_fd_sc_hd__clkbuf_8 A VGND VNB VPB VPWR X
.ends

* Black-box entry subcircuit for sky130_fd_sc_hd__o21bai_1 abstract view
.subckt sky130_fd_sc_hd__o21bai_1 A1 A2 B1_N VGND VNB VPB VPWR Y
.ends

* Black-box entry subcircuit for sky130_fd_sc_hd__and2_1 abstract view
.subckt sky130_fd_sc_hd__and2_1 A B VGND VNB VPB VPWR X
.ends

* Black-box entry subcircuit for sky130_fd_sc_hd__mux2_1 abstract view
.subckt sky130_fd_sc_hd__mux2_1 A0 A1 S VGND VNB VPB VPWR X
.ends

* Black-box entry subcircuit for sky130_fd_sc_hd__a221o_1 abstract view
.subckt sky130_fd_sc_hd__a221o_1 A1 A2 B1 B2 C1 VGND VNB VPB VPWR X
.ends

* Black-box entry subcircuit for sky130_fd_sc_hd__nor2_1 abstract view
.subckt sky130_fd_sc_hd__nor2_1 A B VGND VNB VPB VPWR Y
.ends

* Black-box entry subcircuit for sky130_fd_sc_hd__a22o_1 abstract view
.subckt sky130_fd_sc_hd__a22o_1 A1 A2 B1 B2 VGND VNB VPB VPWR X
.ends

* Black-box entry subcircuit for sky130_fd_sc_hd__dlygate4sd3_1 abstract view
.subckt sky130_fd_sc_hd__dlygate4sd3_1 A VGND VNB VPB VPWR X
.ends

* Black-box entry subcircuit for sky130_fd_sc_hd__and3_1 abstract view
.subckt sky130_fd_sc_hd__and3_1 A B C VGND VNB VPB VPWR X
.ends

* Black-box entry subcircuit for sky130_fd_sc_hd__a31o_1 abstract view
.subckt sky130_fd_sc_hd__a31o_1 A1 A2 A3 B1 VGND VNB VPB VPWR X
.ends

* Black-box entry subcircuit for sky130_fd_sc_hd__inv_2 abstract view
.subckt sky130_fd_sc_hd__inv_2 A VGND VNB VPB VPWR Y
.ends

* Black-box entry subcircuit for sky130_fd_sc_hd__or4b_1 abstract view
.subckt sky130_fd_sc_hd__or4b_1 A B C D_N VGND VNB VPB VPWR X
.ends

* Black-box entry subcircuit for sky130_fd_sc_hd__o21a_1 abstract view
.subckt sky130_fd_sc_hd__o21a_1 A1 A2 B1 VGND VNB VPB VPWR X
.ends

* Black-box entry subcircuit for sky130_fd_sc_hd__xor2_1 abstract view
.subckt sky130_fd_sc_hd__xor2_1 A B VGND VNB VPB VPWR X
.ends

* Black-box entry subcircuit for sky130_fd_sc_hd__o22a_1 abstract view
.subckt sky130_fd_sc_hd__o22a_1 A1 A2 B1 B2 VGND VNB VPB VPWR X
.ends

* Black-box entry subcircuit for sky130_fd_sc_hd__nand3_1 abstract view
.subckt sky130_fd_sc_hd__nand3_1 A B C VGND VNB VPB VPWR Y
.ends

* Black-box entry subcircuit for sky130_fd_sc_hd__a21o_1 abstract view
.subckt sky130_fd_sc_hd__a21o_1 A1 A2 B1 VGND VNB VPB VPWR X
.ends

* Black-box entry subcircuit for sky130_fd_sc_hd__o21ai_1 abstract view
.subckt sky130_fd_sc_hd__o21ai_1 A1 A2 B1 VGND VNB VPB VPWR Y
.ends

* Black-box entry subcircuit for sky130_fd_sc_hd__o32a_1 abstract view
.subckt sky130_fd_sc_hd__o32a_1 A1 A2 A3 B1 B2 VGND VNB VPB VPWR X
.ends

* Black-box entry subcircuit for sky130_fd_sc_hd__xnor2_1 abstract view
.subckt sky130_fd_sc_hd__xnor2_1 A B VGND VNB VPB VPWR Y
.ends

* Black-box entry subcircuit for sky130_fd_sc_hd__dfstp_1 abstract view
.subckt sky130_fd_sc_hd__dfstp_1 CLK D SET_B VGND VNB VPB VPWR Q
.ends

* Black-box entry subcircuit for sky130_fd_sc_hd__nor3_1 abstract view
.subckt sky130_fd_sc_hd__nor3_1 A B C VGND VNB VPB VPWR Y
.ends

* Black-box entry subcircuit for sky130_fd_sc_hd__or4_2 abstract view
.subckt sky130_fd_sc_hd__or4_2 A B C D VGND VNB VPB VPWR X
.ends

* Black-box entry subcircuit for sky130_fd_sc_hd__o21ba_1 abstract view
.subckt sky130_fd_sc_hd__o21ba_1 A1 A2 B1_N VGND VNB VPB VPWR X
.ends

* Black-box entry subcircuit for sky130_fd_sc_hd__clkinv_2 abstract view
.subckt sky130_fd_sc_hd__clkinv_2 A VGND VNB VPB VPWR Y
.ends

* Black-box entry subcircuit for sky130_fd_sc_hd__or4_1 abstract view
.subckt sky130_fd_sc_hd__or4_1 A B C D VGND VNB VPB VPWR X
.ends

* Black-box entry subcircuit for sky130_fd_sc_hd__and4bb_1 abstract view
.subckt sky130_fd_sc_hd__and4bb_1 A_N B_N C D VGND VNB VPB VPWR X
.ends

* Black-box entry subcircuit for sky130_fd_sc_hd__clkinvlp_4 abstract view
.subckt sky130_fd_sc_hd__clkinvlp_4 A VGND VNB VPB VPWR Y
.ends

* Black-box entry subcircuit for sky130_fd_sc_hd__or3_1 abstract view
.subckt sky130_fd_sc_hd__or3_1 A B C VGND VNB VPB VPWR X
.ends

* Black-box entry subcircuit for sky130_fd_sc_hd__nand2_1 abstract view
.subckt sky130_fd_sc_hd__nand2_1 A B VGND VNB VPB VPWR Y
.ends

* Black-box entry subcircuit for sky130_fd_sc_hd__nand2_4 abstract view
.subckt sky130_fd_sc_hd__nand2_4 A B VGND VNB VPB VPWR Y
.ends

* Black-box entry subcircuit for sky130_fd_sc_hd__clkbuf_2 abstract view
.subckt sky130_fd_sc_hd__clkbuf_2 A VGND VNB VPB VPWR X
.ends

* Black-box entry subcircuit for sky130_fd_sc_hd__nor3b_1 abstract view
.subckt sky130_fd_sc_hd__nor3b_1 A B C_N VGND VNB VPB VPWR Y
.ends

* Black-box entry subcircuit for sky130_fd_sc_hd__clkinv_4 abstract view
.subckt sky130_fd_sc_hd__clkinv_4 A VGND VNB VPB VPWR Y
.ends

* Black-box entry subcircuit for sky130_fd_sc_hd__and2b_1 abstract view
.subckt sky130_fd_sc_hd__and2b_1 A_N B VGND VNB VPB VPWR X
.ends

* Black-box entry subcircuit for sky130_fd_sc_hd__or2_1 abstract view
.subckt sky130_fd_sc_hd__or2_1 A B VGND VNB VPB VPWR X
.ends

* Black-box entry subcircuit for sky130_fd_sc_hd__buf_2 abstract view
.subckt sky130_fd_sc_hd__buf_2 A VGND VNB VPB VPWR X
.ends

* Black-box entry subcircuit for sky130_fd_sc_hd__o221a_1 abstract view
.subckt sky130_fd_sc_hd__o221a_1 A1 A2 B1 B2 C1 VGND VNB VPB VPWR X
.ends

* Black-box entry subcircuit for sky130_fd_sc_hd__a21bo_1 abstract view
.subckt sky130_fd_sc_hd__a21bo_1 A1 A2 B1_N VGND VNB VPB VPWR X
.ends

* Black-box entry subcircuit for sky130_fd_sc_hd__clkbuf_16 abstract view
.subckt sky130_fd_sc_hd__clkbuf_16 A VGND VNB VPB VPWR X
.ends

* Black-box entry subcircuit for sky130_fd_sc_hd__and3b_1 abstract view
.subckt sky130_fd_sc_hd__and3b_1 A_N B C VGND VNB VPB VPWR X
.ends

* Black-box entry subcircuit for sky130_fd_sc_hd__bufinv_16 abstract view
.subckt sky130_fd_sc_hd__bufinv_16 A VGND VNB VPB VPWR Y
.ends

* Black-box entry subcircuit for sky130_fd_sc_hd__dfrtp_2 abstract view
.subckt sky130_fd_sc_hd__dfrtp_2 CLK D RESET_B VGND VNB VPB VPWR Q
.ends

* Black-box entry subcircuit for sky130_fd_sc_hd__a21boi_1 abstract view
.subckt sky130_fd_sc_hd__a21boi_1 A1 A2 B1_N VGND VNB VPB VPWR Y
.ends

* Black-box entry subcircuit for sky130_fd_sc_hd__clkbuf_4 abstract view
.subckt sky130_fd_sc_hd__clkbuf_4 A VGND VNB VPB VPWR X
.ends

* Black-box entry subcircuit for sky130_fd_sc_hd__a32o_1 abstract view
.subckt sky130_fd_sc_hd__a32o_1 A1 A2 A3 B1 B2 VGND VNB VPB VPWR X
.ends

* Black-box entry subcircuit for sky130_fd_sc_hd__or2_2 abstract view
.subckt sky130_fd_sc_hd__or2_2 A B VGND VNB VPB VPWR X
.ends

* Black-box entry subcircuit for sky130_fd_sc_hd__buf_1 abstract view
.subckt sky130_fd_sc_hd__buf_1 A VGND VNB VPB VPWR X
.ends

* Black-box entry subcircuit for sky130_fd_sc_hd__dlymetal6s2s_1 abstract view
.subckt sky130_fd_sc_hd__dlymetal6s2s_1 A VGND VNB VPB VPWR X
.ends

* Black-box entry subcircuit for sky130_fd_sc_hd__o211ai_1 abstract view
.subckt sky130_fd_sc_hd__o211ai_1 A1 A2 B1 C1 VGND VNB VPB VPWR Y
.ends

* Black-box entry subcircuit for sky130_fd_sc_hd__a211o_1 abstract view
.subckt sky130_fd_sc_hd__a211o_1 A1 A2 B1 C1 VGND VNB VPB VPWR X
.ends

* Black-box entry subcircuit for sky130_fd_sc_hd__a31oi_1 abstract view
.subckt sky130_fd_sc_hd__a31oi_1 A1 A2 A3 B1 VGND VNB VPB VPWR Y
.ends

* Black-box entry subcircuit for sky130_fd_sc_hd__a2bb2o_1 abstract view
.subckt sky130_fd_sc_hd__a2bb2o_1 A1_N A2_N B1 B2 VGND VNB VPB VPWR X
.ends

* Black-box entry subcircuit for sky130_fd_sc_hd__clkbuf_1 abstract view
.subckt sky130_fd_sc_hd__clkbuf_1 A VGND VNB VPB VPWR X
.ends

* Black-box entry subcircuit for sky130_fd_sc_hd__a31o_2 abstract view
.subckt sky130_fd_sc_hd__a31o_2 A1 A2 A3 B1 VGND VNB VPB VPWR X
.ends

* Black-box entry subcircuit for sky130_fd_sc_hd__conb_1 abstract view
.subckt sky130_fd_sc_hd__conb_1 VGND VNB VPB VPWR HI LO
.ends

* Black-box entry subcircuit for sky130_fd_sc_hd__o21ai_2 abstract view
.subckt sky130_fd_sc_hd__o21ai_2 A1 A2 B1 VGND VNB VPB VPWR Y
.ends

* Black-box entry subcircuit for sky130_fd_sc_hd__a221oi_1 abstract view
.subckt sky130_fd_sc_hd__a221oi_1 A1 A2 B1 B2 C1 VGND VNB VPB VPWR Y
.ends

* Black-box entry subcircuit for sky130_fd_sc_hd__mux2_2 abstract view
.subckt sky130_fd_sc_hd__mux2_2 A0 A1 S VGND VNB VPB VPWR X
.ends

* Black-box entry subcircuit for sky130_fd_sc_hd__o311a_1 abstract view
.subckt sky130_fd_sc_hd__o311a_1 A1 A2 A3 B1 C1 VGND VNB VPB VPWR X
.ends

* Black-box entry subcircuit for sky130_fd_sc_hd__nand2b_2 abstract view
.subckt sky130_fd_sc_hd__nand2b_2 A_N B VGND VNB VPB VPWR Y
.ends

* Black-box entry subcircuit for sky130_fd_sc_hd__o21ba_2 abstract view
.subckt sky130_fd_sc_hd__o21ba_2 A1 A2 B1_N VGND VNB VPB VPWR X
.ends

* Black-box entry subcircuit for sky130_fd_sc_hd__and3_2 abstract view
.subckt sky130_fd_sc_hd__and3_2 A B C VGND VNB VPB VPWR X
.ends

* Black-box entry subcircuit for sky130_fd_sc_hd__o211a_1 abstract view
.subckt sky130_fd_sc_hd__o211a_1 A1 A2 B1 C1 VGND VNB VPB VPWR X
.ends

* Black-box entry subcircuit for sky130_fd_sc_hd__nand2b_1 abstract view
.subckt sky130_fd_sc_hd__nand2b_1 A_N B VGND VNB VPB VPWR Y
.ends

* Black-box entry subcircuit for sky130_fd_sc_hd__o221ai_4 abstract view
.subckt sky130_fd_sc_hd__o221ai_4 A1 A2 B1 B2 C1 VGND VNB VPB VPWR Y
.ends

* Black-box entry subcircuit for sky130_fd_sc_hd__o2bb2a_1 abstract view
.subckt sky130_fd_sc_hd__o2bb2a_1 A1_N A2_N B1 B2 VGND VNB VPB VPWR X
.ends

* Black-box entry subcircuit for sky130_fd_sc_hd__a21bo_4 abstract view
.subckt sky130_fd_sc_hd__a21bo_4 A1 A2 B1_N VGND VNB VPB VPWR X
.ends

* Black-box entry subcircuit for sky130_fd_sc_hd__or3b_1 abstract view
.subckt sky130_fd_sc_hd__or3b_1 A B C_N VGND VNB VPB VPWR X
.ends

* Black-box entry subcircuit for sky130_fd_sc_hd__dfrtp_4 abstract view
.subckt sky130_fd_sc_hd__dfrtp_4 CLK D RESET_B VGND VNB VPB VPWR Q
.ends

* Black-box entry subcircuit for sky130_fd_sc_hd__nor2_2 abstract view
.subckt sky130_fd_sc_hd__nor2_2 A B VGND VNB VPB VPWR Y
.ends

* Black-box entry subcircuit for sky130_fd_sc_hd__o31ai_1 abstract view
.subckt sky130_fd_sc_hd__o31ai_1 A1 A2 A3 B1 VGND VNB VPB VPWR Y
.ends

* Black-box entry subcircuit for sky130_fd_sc_hd__and4b_1 abstract view
.subckt sky130_fd_sc_hd__and4b_1 A_N B C D VGND VNB VPB VPWR X
.ends

* Black-box entry subcircuit for sky130_fd_sc_hd__or4bb_1 abstract view
.subckt sky130_fd_sc_hd__or4bb_1 A B C_N D_N VGND VNB VPB VPWR X
.ends

* Black-box entry subcircuit for sky130_fd_sc_hd__nor4_1 abstract view
.subckt sky130_fd_sc_hd__nor4_1 A B C D VGND VNB VPB VPWR Y
.ends

* Black-box entry subcircuit for sky130_fd_sc_hd__or3b_2 abstract view
.subckt sky130_fd_sc_hd__or3b_2 A B C_N VGND VNB VPB VPWR X
.ends

* Black-box entry subcircuit for sky130_fd_sc_hd__and4_1 abstract view
.subckt sky130_fd_sc_hd__and4_1 A B C D VGND VNB VPB VPWR X
.ends

* Black-box entry subcircuit for sky130_fd_sc_hd__o31a_1 abstract view
.subckt sky130_fd_sc_hd__o31a_1 A1 A2 A3 B1 VGND VNB VPB VPWR X
.ends

* Black-box entry subcircuit for sky130_fd_sc_hd__a21oi_2 abstract view
.subckt sky130_fd_sc_hd__a21oi_2 A1 A2 B1 VGND VNB VPB VPWR Y
.ends

* Black-box entry subcircuit for sky130_fd_sc_hd__o32a_2 abstract view
.subckt sky130_fd_sc_hd__o32a_2 A1 A2 A3 B1 B2 VGND VNB VPB VPWR X
.ends

* Black-box entry subcircuit for sky130_fd_sc_hd__o21bai_4 abstract view
.subckt sky130_fd_sc_hd__o21bai_4 A1 A2 B1_N VGND VNB VPB VPWR Y
.ends

* Black-box entry subcircuit for sky130_fd_sc_hd__a311o_1 abstract view
.subckt sky130_fd_sc_hd__a311o_1 A1 A2 A3 B1 C1 VGND VNB VPB VPWR X
.ends

.subckt top VGND VPWR clk keypad_i[0] keypad_i[10] keypad_i[11] keypad_i[12] keypad_i[13]
+ keypad_i[1] keypad_i[2] keypad_i[3] keypad_i[4] keypad_i[5] keypad_i[6] keypad_i[7]
+ keypad_i[8] keypad_i[9] n_rst pwm
XTAP_TAPCELL_ROW_17_191 VGND VPWR sky130_fd_sc_hd__tapvpwrvgnd_1
XFILLER_22_188 VGND VGND VPWR VPWR sky130_fd_sc_hd__decap_3
XFILLER_45_225 VPWR VGND VPWR VGND sky130_ef_sc_hd__decap_12
XFILLER_13_111 VGND VGND VPWR VPWR sky130_fd_sc_hd__fill_1
XFILLER_26_41 VGND VGND VPWR VPWR sky130_fd_sc_hd__decap_6
XFILLER_26_74 VGND VGND VPWR VPWR sky130_fd_sc_hd__decap_8
XFILLER_26_85 VGND VGND VPWR VPWR sky130_fd_sc_hd__fill_1
XFILLER_3_78 VGND VGND VPWR VPWR sky130_fd_sc_hd__fill_2
X_0985_ clknet_4_0_0_clk _0048_ net47 VGND VGND VPWR VPWR waveshape.seq_div.dividend\[31\]
+ sky130_fd_sc_hd__dfrtp_1
XFILLER_8_181 VGND VGND VPWR VPWR sky130_fd_sc_hd__fill_1
XFILLER_42_217 VGND VGND VPWR VPWR sky130_fd_sc_hd__fill_2
XFILLER_27_214 VGND VGND VPWR VPWR sky130_fd_sc_hd__decap_8
XFILLER_27_225 VGND VGND VPWR VPWR sky130_fd_sc_hd__decap_4
XFILLER_10_125 VPWR VGND VPWR VGND sky130_ef_sc_hd__decap_12
XFILLER_10_147 VGND VGND VPWR VPWR sky130_fd_sc_hd__fill_1
XFILLER_37_51 VGND VGND VPWR VPWR sky130_fd_sc_hd__decap_4
X_0770_ net81 _0323_ _0326_ VGND VGND VPWR VPWR _0040_ sky130_fd_sc_hd__a21oi_1
XFILLER_5_151 VGND VGND VPWR VPWR sky130_fd_sc_hd__decap_3
XTAP_TAPCELL_ROW_11_164 VGND VPWR sky130_fd_sc_hd__tapvpwrvgnd_1
X_0968_ clknet_4_13_0_clk net73 net59 VGND VGND VPWR VPWR pwm_counter.active_sample\[3\]
+ sky130_fd_sc_hd__dfrtp_1
XTAP_TAPCELL_ROW_34_278 VGND VPWR sky130_fd_sc_hd__tapvpwrvgnd_1
Xclkbuf_4_12_0_clk clknet_0_clk VGND VGND VPWR VPWR clknet_4_12_0_clk sky130_fd_sc_hd__clkbuf_8
X_0899_ _0404_ _0427_ _0414_ VGND VGND VPWR VPWR _0428_ sky130_fd_sc_hd__o21bai_1
XTAP_TAPCELL_ROW_25_234 VGND VPWR sky130_fd_sc_hd__tapvpwrvgnd_1
XFILLER_30_209 VGND VGND VPWR VPWR sky130_fd_sc_hd__fill_1
XTAP_TAPCELL_ROW_48_348 VGND VPWR sky130_fd_sc_hd__tapvpwrvgnd_1
XFILLER_48_83 VGND VGND VPWR VPWR sky130_fd_sc_hd__fill_1
XFILLER_0_57 VPWR VGND VPWR VGND sky130_ef_sc_hd__decap_12
XFILLER_14_272 VGND VGND VPWR VPWR sky130_fd_sc_hd__fill_1
X_0822_ _0115_ _0190_ VGND VGND VPWR VPWR _0366_ sky130_fd_sc_hd__and2_1
X_0753_ net78 pwm_counter.active_sample\[0\] _0197_ VGND VGND VPWR VPWR _0028_ sky130_fd_sc_hd__mux2_1
X_0684_ net147 _0278_ _0279_ _0284_ _0282_ VGND VGND VPWR VPWR waveshape.shaper.n_sample\[2\]
+ sky130_fd_sc_hd__a221o_1
XTAP_TAPCELL_ROW_39_304 VGND VPWR sky130_fd_sc_hd__tapvpwrvgnd_1
XTAP_TAPCELL_ROW_22_215 VGND VPWR sky130_fd_sc_hd__tapvpwrvgnd_1
XFILLER_20_253 VPWR VGND VPWR VGND sky130_ef_sc_hd__decap_12
XPHY_EDGE_ROW_8_Left_58 VGND VGND VPWR VPWR sky130_fd_sc_hd__decap_3
XFILLER_34_74 VGND VGND VPWR VPWR sky130_fd_sc_hd__fill_2
XFILLER_34_41 VGND VGND VPWR VPWR sky130_fd_sc_hd__fill_1
XFILLER_11_220 VGND VGND VPWR VPWR sky130_fd_sc_hd__decap_4
XFILLER_7_268 VGND VGND VPWR VPWR sky130_fd_sc_hd__fill_1
X_1021_ clknet_4_11_0_clk net10 net54 VGND VGND VPWR VPWR keypad.keypad_reg\[5\] sky130_fd_sc_hd__dfrtp_1
X_0805_ _0163_ _0184_ VGND VGND VPWR VPWR _0353_ sky130_fd_sc_hd__nor2_1
X_0667_ _0271_ net121 VGND VGND VPWR VPWR pwm_counter.n_count\[5\] sky130_fd_sc_hd__nor2_1
X_0598_ count\[13\] _0100_ _0109_ count\[12\] VGND VGND VPWR VPWR _0233_ sky130_fd_sc_hd__a22o_1
X_0736_ net45 waveshape.seq_div.dividend\[15\] net29 count\[8\] net19 VGND VGND VPWR
+ VPWR _0314_ sky130_fd_sc_hd__a221o_1
XFILLER_44_109 VPWR VGND VPWR VGND sky130_ef_sc_hd__decap_12
Xhold41 waveshape.seq_div.state\[1\] VGND VGND VPWR VPWR net106 sky130_fd_sc_hd__dlygate4sd3_1
Xhold52 freq_div.keycode\[3\] VGND VGND VPWR VPWR net117 sky130_fd_sc_hd__dlygate4sd3_1
Xhold63 waveshape.seq_div.dividend\[24\] VGND VGND VPWR VPWR net128 sky130_fd_sc_hd__dlygate4sd3_1
Xhold30 waveshape.seq_div.dividend\[12\] VGND VGND VPWR VPWR net95 sky130_fd_sc_hd__dlygate4sd3_1
Xhold74 waveshape.scaled_count\[3\] VGND VGND VPWR VPWR net139 sky130_fd_sc_hd__dlygate4sd3_1
XFILLER_45_51 VGND VGND VPWR VPWR sky130_fd_sc_hd__decap_4
XFILLER_43_153 VGND VGND VPWR VPWR sky130_fd_sc_hd__fill_1
XFILLER_28_161 VGND VGND VPWR VPWR sky130_fd_sc_hd__decap_8
XTAP_TAPCELL_ROW_41_310 VGND VPWR sky130_fd_sc_hd__tapvpwrvgnd_1
X_0452_ sample_rate.count\[5\] sample_rate.count\[4\] _0091_ VGND VGND VPWR VPWR _0092_
+ sky130_fd_sc_hd__and3_1
XFILLER_6_78 VGND VGND VPWR VPWR sky130_fd_sc_hd__decap_6
X_0521_ waveshape.seq_div.dividend\[28\] _0122_ _0148_ _0146_ VGND VGND VPWR VPWR
+ _0160_ sky130_fd_sc_hd__a31o_1
XFILLER_13_3 VPWR VGND VPWR VGND sky130_ef_sc_hd__decap_12
X_1004_ clknet_4_13_0_clk pwm_counter.n_count\[2\] net59 VGND VGND VPWR VPWR pwm_counter.count\[2\]
+ sky130_fd_sc_hd__dfrtp_1
XFILLER_34_175 VGND VGND VPWR VPWR sky130_fd_sc_hd__decap_3
X_0719_ net45 waveshape.scaled_count\[6\] net23 VGND VGND VPWR VPWR _0306_ sky130_fd_sc_hd__and3_1
XFILLER_25_131 VGND VGND VPWR VPWR sky130_fd_sc_hd__decap_3
XFILLER_25_142 VGND VGND VPWR VPWR sky130_fd_sc_hd__decap_6
XFILLER_15_54 VGND VGND VPWR VPWR sky130_fd_sc_hd__fill_2
XFILLER_0_230 VGND VGND VPWR VPWR sky130_fd_sc_hd__decap_4
XFILLER_48_289 VGND VGND VPWR VPWR sky130_fd_sc_hd__decap_8
XFILLER_48_245 VGND VGND VPWR VPWR sky130_fd_sc_hd__decap_6
XFILLER_16_197 VGND VGND VPWR VPWR sky130_fd_sc_hd__decap_3
X_0435_ pwm_counter.count\[6\] VGND VGND VPWR VPWR _0075_ sky130_fd_sc_hd__inv_2
X_0504_ _0131_ _0142_ VGND VGND VPWR VPWR _0143_ sky130_fd_sc_hd__and2_1
XTAP_TAPCELL_ROW_17_192 VGND VPWR sky130_fd_sc_hd__tapvpwrvgnd_1
XFILLER_45_237 VPWR VGND VPWR VGND sky130_ef_sc_hd__decap_12
XPHY_EDGE_ROW_37_Left_87 VGND VGND VPWR VPWR sky130_fd_sc_hd__decap_3
XFILLER_13_167 VGND VGND VPWR VPWR sky130_fd_sc_hd__fill_1
XFILLER_36_237 VGND VGND VPWR VPWR sky130_fd_sc_hd__decap_4
X_0984_ clknet_4_0_0_clk _0047_ net47 VGND VGND VPWR VPWR waveshape.seq_div.dividend\[30\]
+ sky130_fd_sc_hd__dfrtp_1
XFILLER_10_137 VGND VGND VPWR VPWR sky130_fd_sc_hd__decap_3
XTAP_TAPCELL_ROW_5_130 VGND VPWR sky130_fd_sc_hd__tapvpwrvgnd_1
XFILLER_41_284 VGND VGND VPWR VPWR sky130_fd_sc_hd__decap_4
XFILLER_26_292 VGND VGND VPWR VPWR sky130_fd_sc_hd__decap_4
X_0967_ clknet_4_13_0_clk net77 net61 VGND VGND VPWR VPWR pwm_counter.active_sample\[2\]
+ sky130_fd_sc_hd__dfrtp_1
XTAP_TAPCELL_ROW_34_279 VGND VPWR sky130_fd_sc_hd__tapvpwrvgnd_1
X_0898_ keypad.keypad_reg\[4\] keypad.keypad_reg\[5\] keypad.keypad_reg\[6\] keypad.keypad_reg\[7\]
+ VGND VGND VPWR VPWR _0427_ sky130_fd_sc_hd__or4b_1
XPHY_EDGE_ROW_12_Right_12 VGND VGND VPWR VPWR sky130_fd_sc_hd__decap_3
XPHY_EDGE_ROW_21_Right_21 VGND VGND VPWR VPWR sky130_fd_sc_hd__decap_3
XFILLER_23_98 VPWR VGND VPWR VGND sky130_ef_sc_hd__decap_12
XPHY_EDGE_ROW_30_Right_30 VGND VGND VPWR VPWR sky130_fd_sc_hd__decap_3
XTAP_TAPCELL_ROW_48_349 VGND VPWR sky130_fd_sc_hd__tapvpwrvgnd_1
XFILLER_0_69 VPWR VGND VPWR VGND sky130_ef_sc_hd__decap_12
XFILLER_14_240 VPWR VGND VPWR VGND sky130_ef_sc_hd__decap_12
X_0821_ net133 net26 _0362_ _0365_ VGND VGND VPWR VPWR _0052_ sky130_fd_sc_hd__a22o_1
X_0752_ net145 net25 net21 VGND VGND VPWR VPWR _0027_ sky130_fd_sc_hd__o21a_1
XFILLER_43_3 VPWR VGND VPWR VGND sky130_ef_sc_hd__decap_12
X_0683_ waveshape.scaled_count\[7\] waveshape.scaled_count\[1\] VGND VGND VPWR VPWR
+ _0284_ sky130_fd_sc_hd__xor2_1
XPHY_EDGE_ROW_24_Left_74 VGND VGND VPWR VPWR sky130_fd_sc_hd__decap_3
XFILLER_49_181 VPWR VGND VPWR VGND sky130_ef_sc_hd__decap_12
XFILLER_20_221 VGND VGND VPWR VPWR sky130_fd_sc_hd__fill_1
XTAP_TAPCELL_ROW_22_216 VGND VPWR sky130_fd_sc_hd__tapvpwrvgnd_1
XFILLER_20_265 VGND VGND VPWR VPWR sky130_fd_sc_hd__decap_8
Xclkbuf_4_11_0_clk clknet_0_clk VGND VGND VPWR VPWR clknet_4_11_0_clk sky130_fd_sc_hd__clkbuf_8
X_1020_ clknet_4_11_0_clk net9 net53 VGND VGND VPWR VPWR keypad.keypad_reg\[4\] sky130_fd_sc_hd__dfrtp_1
XFILLER_46_195 VGND VGND VPWR VPWR sky130_fd_sc_hd__fill_1
X_0804_ waveshape.seq_div.dividend\[31\] net24 _0351_ _0352_ VGND VGND VPWR VPWR _0048_
+ sky130_fd_sc_hd__o22a_1
X_0735_ net103 net22 _0313_ VGND VGND VPWR VPWR _0018_ sky130_fd_sc_hd__o21a_1
X_0666_ pwm_counter.count\[4\] _0270_ net120 VGND VGND VPWR VPWR _0275_ sky130_fd_sc_hd__a21oi_1
X_0597_ count\[11\] _0165_ _0169_ count\[10\] VGND VGND VPWR VPWR _0232_ sky130_fd_sc_hd__a22o_1
Xhold42 _0036_ VGND VGND VPWR VPWR net107 sky130_fd_sc_hd__dlygate4sd3_1
Xhold31 waveshape.seq_div.dividend\[9\] VGND VGND VPWR VPWR net96 sky130_fd_sc_hd__dlygate4sd3_1
Xhold20 waveshape.seq_div.dividend\[8\] VGND VGND VPWR VPWR net85 sky130_fd_sc_hd__dlygate4sd3_1
Xhold75 waveshape.scaled_count\[6\] VGND VGND VPWR VPWR net140 sky130_fd_sc_hd__dlygate4sd3_1
Xhold53 waveshape.seq_div.dividend\[38\] VGND VGND VPWR VPWR net118 sky130_fd_sc_hd__dlygate4sd3_1
Xhold64 waveshape.scaled_count\[4\] VGND VGND VPWR VPWR net129 sky130_fd_sc_hd__dlygate4sd3_1
XFILLER_43_121 VPWR VGND VPWR VGND sky130_ef_sc_hd__decap_12
XTAP_TAPCELL_ROW_41_311 VGND VPWR sky130_fd_sc_hd__tapvpwrvgnd_1
X_0451_ sample_rate.count\[3\] _0090_ VGND VGND VPWR VPWR _0091_ sky130_fd_sc_hd__and2_1
X_0520_ _0149_ _0153_ _0158_ VGND VGND VPWR VPWR _0159_ sky130_fd_sc_hd__nand3_1
X_1003_ clknet_4_13_0_clk pwm_counter.n_count\[1\] net61 VGND VGND VPWR VPWR pwm_counter.count\[1\]
+ sky130_fd_sc_hd__dfrtp_1
XFILLER_19_173 VGND VGND VPWR VPWR sky130_fd_sc_hd__fill_1
XPHY_EDGE_ROW_6_Right_6 VGND VGND VPWR VPWR sky130_fd_sc_hd__decap_3
X_0718_ net140 net20 _0305_ VGND VGND VPWR VPWR _0009_ sky130_fd_sc_hd__a21o_1
X_0649_ _0091_ _0101_ VGND VGND VPWR VPWR _0266_ sky130_fd_sc_hd__nor2_1
XPHY_EDGE_ROW_11_Left_61 VGND VGND VPWR VPWR sky130_fd_sc_hd__decap_3
XFILLER_25_121 VGND VGND VPWR VPWR sky130_fd_sc_hd__fill_2
XFILLER_0_253 VPWR VGND VPWR VGND sky130_ef_sc_hd__decap_12
XFILLER_16_176 VPWR VGND VPWR VGND sky130_ef_sc_hd__decap_12
XFILLER_31_102 VGND VGND VPWR VPWR sky130_fd_sc_hd__decap_6
XFILLER_31_113 VGND VGND VPWR VPWR sky130_fd_sc_hd__fill_1
X_0434_ pwm_counter.count\[7\] VGND VGND VPWR VPWR _0074_ sky130_fd_sc_hd__inv_2
XFILLER_39_268 VGND VGND VPWR VPWR sky130_fd_sc_hd__decap_6
XFILLER_39_235 VPWR VGND VPWR VGND sky130_ef_sc_hd__decap_12
X_0503_ _0134_ _0140_ _0141_ VGND VGND VPWR VPWR _0142_ sky130_fd_sc_hd__o21ai_1
XTAP_TAPCELL_ROW_17_193 VGND VPWR sky130_fd_sc_hd__tapvpwrvgnd_1
XFILLER_45_249 VPWR VGND VPWR VGND sky130_ef_sc_hd__decap_12
XFILLER_45_205 VPWR VGND VPWR VGND sky130_ef_sc_hd__decap_12
XFILLER_9_117 VGND VGND VPWR VPWR sky130_fd_sc_hd__fill_1
XFILLER_13_113 VGND VGND VPWR VPWR sky130_fd_sc_hd__fill_1
XFILLER_42_64 VGND VGND VPWR VPWR sky130_fd_sc_hd__decap_8
X_0983_ clknet_4_0_0_clk _0046_ net46 VGND VGND VPWR VPWR waveshape.seq_div.dividend\[29\]
+ sky130_fd_sc_hd__dfrtp_1
XFILLER_6_109 VPWR VGND VPWR VGND sky130_ef_sc_hd__decap_12
XTAP_TAPCELL_ROW_5_131 VGND VPWR sky130_fd_sc_hd__tapvpwrvgnd_1
XFILLER_41_241 VPWR VGND VPWR VGND sky130_ef_sc_hd__decap_12
XFILLER_5_186 VGND VGND VPWR VPWR sky130_fd_sc_hd__fill_2
XFILLER_5_131 VPWR VGND VPWR VGND sky130_ef_sc_hd__decap_12
XTAP_TAPCELL_ROW_19_200 VGND VPWR sky130_fd_sc_hd__tapvpwrvgnd_1
XFILLER_24_219 VGND VGND VPWR VPWR sky130_fd_sc_hd__fill_1
X_0966_ clknet_4_13_0_clk net84 net56 VGND VGND VPWR VPWR pwm_counter.active_sample\[1\]
+ sky130_fd_sc_hd__dfrtp_1
X_0897_ _0407_ _0419_ _0426_ _0214_ net33 VGND VGND VPWR VPWR _0067_ sky130_fd_sc_hd__o32a_1
XFILLER_23_55 VGND VGND VPWR VPWR sky130_fd_sc_hd__fill_1
XFILLER_3_3 VPWR VGND VPWR VGND sky130_ef_sc_hd__decap_12
XFILLER_48_85 VPWR VGND VPWR VGND sky130_ef_sc_hd__decap_12
XFILLER_48_41 VPWR VGND VPWR VGND sky130_ef_sc_hd__decap_12
XFILLER_2_189 VGND VGND VPWR VPWR sky130_fd_sc_hd__fill_1
XFILLER_0_15 VPWR VGND VPWR VGND sky130_ef_sc_hd__decap_12
XFILLER_9_68 VPWR VGND VPWR VGND sky130_ef_sc_hd__decap_12
XFILLER_14_296 VGND VGND VPWR VPWR sky130_fd_sc_hd__fill_1
X_0751_ net98 net23 _0321_ VGND VGND VPWR VPWR _0026_ sky130_fd_sc_hd__o21a_1
X_0820_ net40 waveshape.seq_div.dividend\[34\] _0364_ net39 VGND VGND VPWR VPWR _0365_
+ sky130_fd_sc_hd__a22o_1
XFILLER_36_3 VPWR VGND VPWR VGND sky130_ef_sc_hd__decap_12
X_0682_ net149 _0278_ _0279_ _0283_ _0282_ VGND VGND VPWR VPWR waveshape.shaper.n_sample\[1\]
+ sky130_fd_sc_hd__a221o_1
XFILLER_49_193 VGND VGND VPWR VPWR sky130_fd_sc_hd__decap_3
XTAP_TAPCELL_ROW_22_217 VGND VPWR sky130_fd_sc_hd__tapvpwrvgnd_1
X_0949_ clknet_4_3_0_clk _0020_ net57 VGND VGND VPWR VPWR waveshape.seq_div.dividend\[17\]
+ sky130_fd_sc_hd__dfrtp_1
XPHY_EDGE_ROW_41_Left_91 VGND VGND VPWR VPWR sky130_fd_sc_hd__decap_3
XFILLER_18_55 VPWR VGND VPWR VGND sky130_ef_sc_hd__decap_12
XFILLER_46_141 VPWR VGND VPWR VGND sky130_ef_sc_hd__decap_12
X_0665_ _0077_ _0270_ VGND VGND VPWR VPWR pwm_counter.n_count\[4\] sky130_fd_sc_hd__xnor2_1
X_0803_ net37 _0349_ _0350_ net27 VGND VGND VPWR VPWR _0352_ sky130_fd_sc_hd__a31o_1
X_0734_ net45 waveshape.seq_div.dividend\[14\] net29 count\[7\] net19 VGND VGND VPWR
+ VPWR _0313_ sky130_fd_sc_hd__a221o_1
X_0596_ _0227_ _0229_ _0230_ VGND VGND VPWR VPWR _0231_ sky130_fd_sc_hd__o21a_1
XFILLER_29_108 VGND VGND VPWR VPWR sky130_fd_sc_hd__decap_4
Xhold65 sample_rate.count\[4\] VGND VGND VPWR VPWR net130 sky130_fd_sc_hd__dlygate4sd3_1
Xhold21 sample_rate.count\[1\] VGND VGND VPWR VPWR net86 sky130_fd_sc_hd__dlygate4sd3_1
Xhold10 _0032_ VGND VGND VPWR VPWR net75 sky130_fd_sc_hd__dlygate4sd3_1
Xhold76 waveshape.scaled_count\[0\] VGND VGND VPWR VPWR net141 sky130_fd_sc_hd__dlygate4sd3_1
Xhold54 waveshape.seq_div.state\[0\] VGND VGND VPWR VPWR net119 sky130_fd_sc_hd__dlygate4sd3_1
Xhold43 freq_div.keycode\[0\] VGND VGND VPWR VPWR net108 sky130_fd_sc_hd__dlygate4sd3_1
Xhold32 waveshape.seq_div.dividend\[11\] VGND VGND VPWR VPWR net97 sky130_fd_sc_hd__dlygate4sd3_1
XFILLER_28_141 VPWR VGND VPWR VGND sky130_ef_sc_hd__decap_12
XFILLER_29_54 VGND VGND VPWR VPWR sky130_fd_sc_hd__fill_2
XFILLER_43_177 VPWR VGND VPWR VGND sky130_ef_sc_hd__decap_12
XFILLER_43_166 VGND VGND VPWR VPWR sky130_fd_sc_hd__fill_2
XFILLER_43_133 VPWR VGND VPWR VGND sky130_ef_sc_hd__decap_12
XFILLER_43_111 VGND VGND VPWR VPWR sky130_fd_sc_hd__fill_1
XTAP_TAPCELL_ROW_41_312 VGND VPWR sky130_fd_sc_hd__tapvpwrvgnd_1
X_0450_ sample_rate.count\[1\] sample_rate.count\[0\] sample_rate.count\[2\] VGND
+ VGND VPWR VPWR _0090_ sky130_fd_sc_hd__and3_1
XFILLER_3_295 VGND VGND VPWR VPWR sky130_fd_sc_hd__fill_2
X_1002_ clknet_4_15_0_clk pwm_counter.n_count\[0\] net59 VGND VGND VPWR VPWR pwm_counter.count\[0\]
+ sky130_fd_sc_hd__dfstp_1
X_0648_ _0090_ _0101_ _0265_ VGND VGND VPWR VPWR sample_rate.n_count\[2\] sky130_fd_sc_hd__nor3_1
X_0717_ net45 waveshape.scaled_count\[5\] _0298_ VGND VGND VPWR VPWR _0305_ sky130_fd_sc_hd__and3_1
X_0579_ _0214_ VGND VGND VPWR VPWR keypad.n_modekey sky130_fd_sc_hd__inv_2
XFILLER_25_177 VGND VGND VPWR VPWR sky130_fd_sc_hd__decap_4
Xclkbuf_4_10_0_clk clknet_0_clk VGND VGND VPWR VPWR clknet_4_10_0_clk sky130_fd_sc_hd__clkbuf_8
XFILLER_31_55 VGND VGND VPWR VPWR sky130_fd_sc_hd__fill_1
XFILLER_0_265 VPWR VGND VPWR VGND sky130_ef_sc_hd__decap_12
XFILLER_31_169 VGND VGND VPWR VPWR sky130_fd_sc_hd__fill_2
XFILLER_16_188 VGND VGND VPWR VPWR sky130_fd_sc_hd__decap_8
X_0502_ waveshape.seq_div.dividend\[26\] _0130_ VGND VGND VPWR VPWR _0141_ sky130_fd_sc_hd__xor2_1
XFILLER_39_247 VPWR VGND VPWR VGND sky130_ef_sc_hd__decap_12
XFILLER_39_225 VGND VGND VPWR VPWR sky130_fd_sc_hd__decap_3
X_0433_ waveshape.seq_div.dividend\[45\] VGND VGND VPWR VPWR _0073_ sky130_fd_sc_hd__inv_2
XTAP_TAPCELL_ROW_17_194 VGND VPWR sky130_fd_sc_hd__tapvpwrvgnd_1
XFILLER_30_180 VGND VGND VPWR VPWR sky130_fd_sc_hd__fill_1
XFILLER_45_217 VGND VGND VPWR VPWR sky130_fd_sc_hd__decap_6
XFILLER_13_125 VGND VGND VPWR VPWR sky130_fd_sc_hd__fill_1
XFILLER_13_169 VGND VGND VPWR VPWR sky130_fd_sc_hd__fill_2
XFILLER_21_191 VGND VGND VPWR VPWR sky130_fd_sc_hd__decap_3
XFILLER_3_15 VPWR VGND VPWR VGND sky130_ef_sc_hd__decap_12
X_0982_ clknet_4_2_0_clk _0045_ net46 VGND VGND VPWR VPWR waveshape.seq_div.dividend\[28\]
+ sky130_fd_sc_hd__dfrtp_1
XFILLER_8_195 VGND VGND VPWR VPWR sky130_fd_sc_hd__fill_1
XTAP_TAPCELL_ROW_14_175 VGND VPWR sky130_fd_sc_hd__tapvpwrvgnd_1
XTAP_TAPCELL_ROW_5_132 VGND VPWR sky130_fd_sc_hd__tapvpwrvgnd_1
XFILLER_37_76 VPWR VGND VPWR VGND sky130_ef_sc_hd__decap_12
XFILLER_37_65 VGND VGND VPWR VPWR sky130_fd_sc_hd__fill_2
XFILLER_18_217 VGND VGND VPWR VPWR sky130_fd_sc_hd__decap_6
XTAP_TAPCELL_ROW_28_245 VGND VPWR sky130_fd_sc_hd__tapvpwrvgnd_1
XFILLER_41_253 VGND VGND VPWR VPWR sky130_fd_sc_hd__decap_4
XFILLER_5_176 VGND VGND VPWR VPWR sky130_fd_sc_hd__decap_6
XFILLER_5_143 VGND VGND VPWR VPWR sky130_fd_sc_hd__decap_8
XTAP_TAPCELL_ROW_19_201 VGND VPWR sky130_fd_sc_hd__tapvpwrvgnd_1
X_0965_ clknet_4_13_0_clk net79 net56 VGND VGND VPWR VPWR pwm_counter.active_sample\[0\]
+ sky130_fd_sc_hd__dfrtp_1
X_0896_ keypad.keypad_reg\[3\] _0206_ _0415_ _0425_ VGND VGND VPWR VPWR _0426_ sky130_fd_sc_hd__a31o_1
XTAP_TAPCELL_ROW_33_270 VGND VPWR sky130_fd_sc_hd__tapvpwrvgnd_1
XFILLER_23_67 VPWR VGND VPWR VGND sky130_ef_sc_hd__decap_12
XFILLER_48_97 VPWR VGND VPWR VGND sky130_ef_sc_hd__decap_12
XFILLER_48_53 VPWR VGND VPWR VGND sky130_ef_sc_hd__decap_12
XFILLER_0_27 VGND VGND VPWR VPWR sky130_fd_sc_hd__fill_1
XFILLER_14_253 VGND VGND VPWR VPWR sky130_fd_sc_hd__fill_2