* NGSPICE file created from calculator_top.ext - technology: sky130A

* Black-box entry subcircuit for sky130_fd_sc_hd__o21bai_1 abstract view
.subckt sky130_fd_sc_hd__o21bai_1 A1 A2 B1_N VGND VNB VPB VPWR Y
.ends

* Black-box entry subcircuit for sky130_fd_sc_hd__decap_3 abstract view
.subckt sky130_fd_sc_hd__decap_3 VGND VNB VPB VPWR
.ends

* Black-box entry subcircuit for sky130_fd_sc_hd__fill_2 abstract view
.subckt sky130_fd_sc_hd__fill_2 VGND VNB VPB VPWR
.ends

* Black-box entry subcircuit for sky130_fd_sc_hd__xnor2_1 abstract view
.subckt sky130_fd_sc_hd__xnor2_1 A B VGND VNB VPB VPWR Y
.ends

* Black-box entry subcircuit for sky130_fd_sc_hd__tapvpwrvgnd_1 abstract view
.subckt sky130_fd_sc_hd__tapvpwrvgnd_1 VGND VPWR
.ends

* Black-box entry subcircuit for sky130_fd_sc_hd__decap_6 abstract view
.subckt sky130_fd_sc_hd__decap_6 VGND VNB VPB VPWR
.ends

* Black-box entry subcircuit for sky130_ef_sc_hd__decap_12 abstract view
.subckt sky130_ef_sc_hd__decap_12 VPWR VGND VPB VNB
.ends

* Black-box entry subcircuit for sky130_fd_sc_hd__decap_4 abstract view
.subckt sky130_fd_sc_hd__decap_4 VGND VNB VPB VPWR
.ends

* Black-box entry subcircuit for sky130_fd_sc_hd__fill_1 abstract view
.subckt sky130_fd_sc_hd__fill_1 VGND VNB VPB VPWR
.ends

* Black-box entry subcircuit for sky130_fd_sc_hd__a21oi_1 abstract view
.subckt sky130_fd_sc_hd__a21oi_1 A1 A2 B1 VGND VNB VPB VPWR Y
.ends

* Black-box entry subcircuit for sky130_fd_sc_hd__nor2_1 abstract view
.subckt sky130_fd_sc_hd__nor2_1 A B VGND VNB VPB VPWR Y
.ends

* Black-box entry subcircuit for sky130_fd_sc_hd__dfrtp_1 abstract view
.subckt sky130_fd_sc_hd__dfrtp_1 CLK D RESET_B VGND VNB VPB VPWR Q
.ends

* Black-box entry subcircuit for sky130_fd_sc_hd__buf_2 abstract view
.subckt sky130_fd_sc_hd__buf_2 A VGND VNB VPB VPWR X
.ends

* Black-box entry subcircuit for sky130_fd_sc_hd__clkbuf_4 abstract view
.subckt sky130_fd_sc_hd__clkbuf_4 A VGND VNB VPB VPWR X
.ends

* Black-box entry subcircuit for sky130_fd_sc_hd__clkbuf_2 abstract view
.subckt sky130_fd_sc_hd__clkbuf_2 A VGND VNB VPB VPWR X
.ends

* Black-box entry subcircuit for sky130_fd_sc_hd__a22o_1 abstract view
.subckt sky130_fd_sc_hd__a22o_1 A1 A2 B1 B2 VGND VNB VPB VPWR X
.ends

* Black-box entry subcircuit for sky130_fd_sc_hd__and2_1 abstract view
.subckt sky130_fd_sc_hd__and2_1 A B VGND VNB VPB VPWR X
.ends

* Black-box entry subcircuit for sky130_fd_sc_hd__mux2_1 abstract view
.subckt sky130_fd_sc_hd__mux2_1 A0 A1 S VGND VNB VPB VPWR X
.ends

* Black-box entry subcircuit for sky130_fd_sc_hd__dlygate4sd3_1 abstract view
.subckt sky130_fd_sc_hd__dlygate4sd3_1 A VGND VNB VPB VPWR X
.ends

* Black-box entry subcircuit for sky130_fd_sc_hd__dfxtp_1 abstract view
.subckt sky130_fd_sc_hd__dfxtp_1 CLK D VGND VNB VPB VPWR Q
.ends

* Black-box entry subcircuit for sky130_fd_sc_hd__o22a_1 abstract view
.subckt sky130_fd_sc_hd__o22a_1 A1 A2 B1 B2 VGND VNB VPB VPWR X
.ends

* Black-box entry subcircuit for sky130_fd_sc_hd__or3_1 abstract view
.subckt sky130_fd_sc_hd__or3_1 A B C VGND VNB VPB VPWR X
.ends

* Black-box entry subcircuit for sky130_fd_sc_hd__dfrtp_4 abstract view
.subckt sky130_fd_sc_hd__dfrtp_4 CLK D RESET_B VGND VNB VPB VPWR Q
.ends

* Black-box entry subcircuit for sky130_fd_sc_hd__decap_8 abstract view
.subckt sky130_fd_sc_hd__decap_8 VGND VNB VPB VPWR
.ends

* Black-box entry subcircuit for sky130_fd_sc_hd__o21ai_1 abstract view
.subckt sky130_fd_sc_hd__o21ai_1 A1 A2 B1 VGND VNB VPB VPWR Y
.ends

* Black-box entry subcircuit for sky130_fd_sc_hd__a21boi_1 abstract view
.subckt sky130_fd_sc_hd__a21boi_1 A1 A2 B1_N VGND VNB VPB VPWR Y
.ends

* Black-box entry subcircuit for sky130_fd_sc_hd__a211o_1 abstract view
.subckt sky130_fd_sc_hd__a211o_1 A1 A2 B1 C1 VGND VNB VPB VPWR X
.ends

* Black-box entry subcircuit for sky130_fd_sc_hd__and3_1 abstract view
.subckt sky130_fd_sc_hd__and3_1 A B C VGND VNB VPB VPWR X
.ends

* Black-box entry subcircuit for sky130_fd_sc_hd__xor2_1 abstract view
.subckt sky130_fd_sc_hd__xor2_1 A B VGND VNB VPB VPWR X
.ends

* Black-box entry subcircuit for sky130_fd_sc_hd__inv_2 abstract view
.subckt sky130_fd_sc_hd__inv_2 A VGND VNB VPB VPWR Y
.ends

* Black-box entry subcircuit for sky130_fd_sc_hd__or4_1 abstract view
.subckt sky130_fd_sc_hd__or4_1 A B C D VGND VNB VPB VPWR X
.ends

* Black-box entry subcircuit for sky130_fd_sc_hd__nand2_1 abstract view
.subckt sky130_fd_sc_hd__nand2_1 A B VGND VNB VPB VPWR Y
.ends

* Black-box entry subcircuit for sky130_fd_sc_hd__a31o_1 abstract view
.subckt sky130_fd_sc_hd__a31o_1 A1 A2 A3 B1 VGND VNB VPB VPWR X
.ends

* Black-box entry subcircuit for sky130_fd_sc_hd__o31a_1 abstract view
.subckt sky130_fd_sc_hd__o31a_1 A1 A2 A3 B1 VGND VNB VPB VPWR X
.ends

* Black-box entry subcircuit for sky130_fd_sc_hd__o221a_1 abstract view
.subckt sky130_fd_sc_hd__o221a_1 A1 A2 B1 B2 C1 VGND VNB VPB VPWR X
.ends

* Black-box entry subcircuit for sky130_fd_sc_hd__a221o_1 abstract view
.subckt sky130_fd_sc_hd__a221o_1 A1 A2 B1 B2 C1 VGND VNB VPB VPWR X
.ends

* Black-box entry subcircuit for sky130_fd_sc_hd__and2b_1 abstract view
.subckt sky130_fd_sc_hd__and2b_1 A_N B VGND VNB VPB VPWR X
.ends

* Black-box entry subcircuit for sky130_fd_sc_hd__o211a_1 abstract view
.subckt sky130_fd_sc_hd__o211a_1 A1 A2 B1 C1 VGND VNB VPB VPWR X
.ends

* Black-box entry subcircuit for sky130_fd_sc_hd__or2_1 abstract view
.subckt sky130_fd_sc_hd__or2_1 A B VGND VNB VPB VPWR X
.ends

* Black-box entry subcircuit for sky130_fd_sc_hd__a21o_1 abstract view
.subckt sky130_fd_sc_hd__a21o_1 A1 A2 B1 VGND VNB VPB VPWR X
.ends

* Black-box entry subcircuit for sky130_fd_sc_hd__nand3_1 abstract view
.subckt sky130_fd_sc_hd__nand3_1 A B C VGND VNB VPB VPWR Y
.ends

* Black-box entry subcircuit for sky130_fd_sc_hd__a32o_1 abstract view
.subckt sky130_fd_sc_hd__a32o_1 A1 A2 A3 B1 B2 VGND VNB VPB VPWR X
.ends

* Black-box entry subcircuit for sky130_fd_sc_hd__o21a_1 abstract view
.subckt sky130_fd_sc_hd__o21a_1 A1 A2 B1 VGND VNB VPB VPWR X
.ends

* Black-box entry subcircuit for sky130_fd_sc_hd__nor3_1 abstract view
.subckt sky130_fd_sc_hd__nor3_1 A B C VGND VNB VPB VPWR Y
.ends

* Black-box entry subcircuit for sky130_fd_sc_hd__dfrtp_2 abstract view
.subckt sky130_fd_sc_hd__dfrtp_2 CLK D RESET_B VGND VNB VPB VPWR Q
.ends

* Black-box entry subcircuit for sky130_fd_sc_hd__a21bo_1 abstract view
.subckt sky130_fd_sc_hd__a21bo_1 A1 A2 B1_N VGND VNB VPB VPWR X
.ends

* Black-box entry subcircuit for sky130_fd_sc_hd__xnor2_2 abstract view
.subckt sky130_fd_sc_hd__xnor2_2 A B VGND VNB VPB VPWR Y
.ends

* Black-box entry subcircuit for sky130_fd_sc_hd__or4_4 abstract view
.subckt sky130_fd_sc_hd__or4_4 A B C D VGND VNB VPB VPWR X
.ends

* Black-box entry subcircuit for sky130_fd_sc_hd__o311a_1 abstract view
.subckt sky130_fd_sc_hd__o311a_1 A1 A2 A3 B1 C1 VGND VNB VPB VPWR X
.ends

* Black-box entry subcircuit for sky130_fd_sc_hd__or4b_4 abstract view
.subckt sky130_fd_sc_hd__or4b_4 A B C D_N VGND VNB VPB VPWR X
.ends

* Black-box entry subcircuit for sky130_fd_sc_hd__a22oi_1 abstract view
.subckt sky130_fd_sc_hd__a22oi_1 A1 A2 B1 B2 VGND VNB VPB VPWR Y
.ends

* Black-box entry subcircuit for sky130_fd_sc_hd__o21ba_1 abstract view
.subckt sky130_fd_sc_hd__o21ba_1 A1 A2 B1_N VGND VNB VPB VPWR X
.ends

* Black-box entry subcircuit for sky130_fd_sc_hd__a2bb2o_1 abstract view
.subckt sky130_fd_sc_hd__a2bb2o_1 A1_N A2_N B1 B2 VGND VNB VPB VPWR X
.ends

* Black-box entry subcircuit for sky130_fd_sc_hd__nand4_1 abstract view
.subckt sky130_fd_sc_hd__nand4_1 A B C D VGND VNB VPB VPWR Y
.ends

* Black-box entry subcircuit for sky130_fd_sc_hd__nand2b_1 abstract view
.subckt sky130_fd_sc_hd__nand2b_1 A_N B VGND VNB VPB VPWR Y
.ends

* Black-box entry subcircuit for sky130_fd_sc_hd__or4bb_1 abstract view
.subckt sky130_fd_sc_hd__or4bb_1 A B C_N D_N VGND VNB VPB VPWR X
.ends

* Black-box entry subcircuit for sky130_fd_sc_hd__a41o_1 abstract view
.subckt sky130_fd_sc_hd__a41o_1 A1 A2 A3 A4 B1 VGND VNB VPB VPWR X
.ends

* Black-box entry subcircuit for sky130_fd_sc_hd__clkbuf_8 abstract view
.subckt sky130_fd_sc_hd__clkbuf_8 A VGND VNB VPB VPWR X
.ends

* Black-box entry subcircuit for sky130_fd_sc_hd__and4_1 abstract view
.subckt sky130_fd_sc_hd__and4_1 A B C D VGND VNB VPB VPWR X
.ends

* Black-box entry subcircuit for sky130_fd_sc_hd__and3_2 abstract view
.subckt sky130_fd_sc_hd__and3_2 A B C VGND VNB VPB VPWR X
.ends

* Black-box entry subcircuit for sky130_fd_sc_hd__nor2_2 abstract view
.subckt sky130_fd_sc_hd__nor2_2 A B VGND VNB VPB VPWR Y
.ends

* Black-box entry subcircuit for sky130_fd_sc_hd__or4b_1 abstract view
.subckt sky130_fd_sc_hd__or4b_1 A B C D_N VGND VNB VPB VPWR X
.ends

* Black-box entry subcircuit for sky130_fd_sc_hd__or3b_1 abstract view
.subckt sky130_fd_sc_hd__or3b_1 A B C_N VGND VNB VPB VPWR X
.ends

* Black-box entry subcircuit for sky130_fd_sc_hd__clkinv_4 abstract view
.subckt sky130_fd_sc_hd__clkinv_4 A VGND VNB VPB VPWR Y
.ends

* Black-box entry subcircuit for sky130_fd_sc_hd__clkinvlp_4 abstract view
.subckt sky130_fd_sc_hd__clkinvlp_4 A VGND VNB VPB VPWR Y
.ends

* Black-box entry subcircuit for sky130_fd_sc_hd__o211ai_1 abstract view
.subckt sky130_fd_sc_hd__o211ai_1 A1 A2 B1 C1 VGND VNB VPB VPWR Y
.ends

* Black-box entry subcircuit for sky130_fd_sc_hd__and4b_1 abstract view
.subckt sky130_fd_sc_hd__and4b_1 A_N B C D VGND VNB VPB VPWR X
.ends

* Black-box entry subcircuit for sky130_fd_sc_hd__buf_1 abstract view
.subckt sky130_fd_sc_hd__buf_1 A VGND VNB VPB VPWR X
.ends

* Black-box entry subcircuit for sky130_fd_sc_hd__inv_6 abstract view
.subckt sky130_fd_sc_hd__inv_6 A VGND VNB VPB VPWR Y
.ends

* Black-box entry subcircuit for sky130_fd_sc_hd__inv_12 abstract view
.subckt sky130_fd_sc_hd__inv_12 A VGND VNB VPB VPWR Y
.ends

* Black-box entry subcircuit for sky130_fd_sc_hd__and3b_1 abstract view
.subckt sky130_fd_sc_hd__and3b_1 A_N B C VGND VNB VPB VPWR X
.ends

* Black-box entry subcircuit for sky130_fd_sc_hd__nand3b_1 abstract view
.subckt sky130_fd_sc_hd__nand3b_1 A_N B C VGND VNB VPB VPWR Y
.ends

* Black-box entry subcircuit for sky130_fd_sc_hd__clkbuf_16 abstract view
.subckt sky130_fd_sc_hd__clkbuf_16 A VGND VNB VPB VPWR X
.ends

* Black-box entry subcircuit for sky130_fd_sc_hd__clkinv_8 abstract view
.subckt sky130_fd_sc_hd__clkinv_8 A VGND VNB VPB VPWR Y
.ends

* Black-box entry subcircuit for sky130_fd_sc_hd__clkinv_2 abstract view
.subckt sky130_fd_sc_hd__clkinv_2 A VGND VNB VPB VPWR Y
.ends

* Black-box entry subcircuit for sky130_fd_sc_hd__inv_4 abstract view
.subckt sky130_fd_sc_hd__inv_4 A VGND VNB VPB VPWR Y
.ends

* Black-box entry subcircuit for sky130_fd_sc_hd__nor4_1 abstract view
.subckt sky130_fd_sc_hd__nor4_1 A B C D VGND VNB VPB VPWR Y
.ends

* Black-box entry subcircuit for sky130_fd_sc_hd__and3b_2 abstract view
.subckt sky130_fd_sc_hd__and3b_2 A_N B C VGND VNB VPB VPWR X
.ends

* Black-box entry subcircuit for sky130_fd_sc_hd__or4b_2 abstract view
.subckt sky130_fd_sc_hd__or4b_2 A B C D_N VGND VNB VPB VPWR X
.ends

* Black-box entry subcircuit for sky130_fd_sc_hd__dfstp_1 abstract view
.subckt sky130_fd_sc_hd__dfstp_1 CLK D SET_B VGND VNB VPB VPWR Q
.ends

* Black-box entry subcircuit for sky130_fd_sc_hd__and4b_4 abstract view
.subckt sky130_fd_sc_hd__and4b_4 A_N B C D VGND VNB VPB VPWR X
.ends

* Black-box entry subcircuit for sky130_fd_sc_hd__inv_8 abstract view
.subckt sky130_fd_sc_hd__inv_8 A VGND VNB VPB VPWR Y
.ends

* Black-box entry subcircuit for sky130_fd_sc_hd__nor3b_1 abstract view
.subckt sky130_fd_sc_hd__nor3b_1 A B C_N VGND VNB VPB VPWR Y
.ends

* Black-box entry subcircuit for sky130_fd_sc_hd__dfstp_2 abstract view
.subckt sky130_fd_sc_hd__dfstp_2 CLK D SET_B VGND VNB VPB VPWR Q
.ends

* Black-box entry subcircuit for sky130_fd_sc_hd__dlymetal6s2s_1 abstract view
.subckt sky130_fd_sc_hd__dlymetal6s2s_1 A VGND VNB VPB VPWR X
.ends

* Black-box entry subcircuit for sky130_fd_sc_hd__a2111o_1 abstract view
.subckt sky130_fd_sc_hd__a2111o_1 A1 A2 B1 C1 D1 VGND VNB VPB VPWR X
.ends

* Black-box entry subcircuit for sky130_fd_sc_hd__bufinv_16 abstract view
.subckt sky130_fd_sc_hd__bufinv_16 A VGND VNB VPB VPWR Y
.ends

* Black-box entry subcircuit for sky130_fd_sc_hd__clkbuf_1 abstract view
.subckt sky130_fd_sc_hd__clkbuf_1 A VGND VNB VPB VPWR X
.ends

* Black-box entry subcircuit for sky130_fd_sc_hd__o2111a_1 abstract view
.subckt sky130_fd_sc_hd__o2111a_1 A1 A2 B1 C1 D1 VGND VNB VPB VPWR X
.ends

* Black-box entry subcircuit for sky130_fd_sc_hd__nand2_2 abstract view
.subckt sky130_fd_sc_hd__nand2_2 A B VGND VNB VPB VPWR Y
.ends

* Black-box entry subcircuit for sky130_fd_sc_hd__and4bb_1 abstract view
.subckt sky130_fd_sc_hd__and4bb_1 A_N B_N C D VGND VNB VPB VPWR X
.ends

* Black-box entry subcircuit for sky130_fd_sc_hd__a22oi_2 abstract view
.subckt sky130_fd_sc_hd__a22oi_2 A1 A2 B1 B2 VGND VNB VPB VPWR Y
.ends

* Black-box entry subcircuit for sky130_fd_sc_hd__and4_4 abstract view
.subckt sky130_fd_sc_hd__and4_4 A B C D VGND VNB VPB VPWR X
.ends

* Black-box entry subcircuit for sky130_fd_sc_hd__a311oi_4 abstract view
.subckt sky130_fd_sc_hd__a311oi_4 A1 A2 A3 B1 C1 VGND VNB VPB VPWR Y
.ends

* Black-box entry subcircuit for sky130_fd_sc_hd__nand3b_2 abstract view
.subckt sky130_fd_sc_hd__nand3b_2 A_N B C VGND VNB VPB VPWR Y
.ends

* Black-box entry subcircuit for sky130_fd_sc_hd__or3_2 abstract view
.subckt sky130_fd_sc_hd__or3_2 A B C VGND VNB VPB VPWR X
.ends

* Black-box entry subcircuit for sky130_fd_sc_hd__o31ai_1 abstract view
.subckt sky130_fd_sc_hd__o31ai_1 A1 A2 A3 B1 VGND VNB VPB VPWR Y
.ends

* Black-box entry subcircuit for sky130_fd_sc_hd__o32a_1 abstract view
.subckt sky130_fd_sc_hd__o32a_1 A1 A2 A3 B1 B2 VGND VNB VPB VPWR X
.ends

* Black-box entry subcircuit for sky130_fd_sc_hd__o2bb2a_1 abstract view
.subckt sky130_fd_sc_hd__o2bb2a_1 A1_N A2_N B1 B2 VGND VNB VPB VPWR X
.ends

* Black-box entry subcircuit for sky130_fd_sc_hd__and2_2 abstract view
.subckt sky130_fd_sc_hd__and2_2 A B VGND VNB VPB VPWR X
.ends

* Black-box entry subcircuit for sky130_fd_sc_hd__nor4_2 abstract view
.subckt sky130_fd_sc_hd__nor4_2 A B C D VGND VNB VPB VPWR Y
.ends

* Black-box entry subcircuit for sky130_fd_sc_hd__a21oi_2 abstract view
.subckt sky130_fd_sc_hd__a21oi_2 A1 A2 B1 VGND VNB VPB VPWR Y
.ends

* Black-box entry subcircuit for sky130_fd_sc_hd__diode_2 abstract view
.subckt sky130_fd_sc_hd__diode_2 DIODE VGND VNB VPB VPWR
.ends

* Black-box entry subcircuit for sky130_fd_sc_hd__a211oi_1 abstract view
.subckt sky130_fd_sc_hd__a211oi_1 A1 A2 B1 C1 VGND VNB VPB VPWR Y
.ends

.subckt calculator_top ColOut[0] ColOut[1] ColOut[2] ColOut[3] RowIn[0] RowIn[1] RowIn[2]
+ RowIn[3] VGND VPWR clk complete display_output[0] display_output[10] display_output[11]
+ display_output[12] display_output[13] display_output[14] display_output[15] display_output[1]
+ display_output[2] display_output[3] display_output[4] display_output[5] display_output[6]
+ display_output[7] display_output[8] display_output[9] input_state_FPGA[0] input_state_FPGA[1]
+ input_state_FPGA[2] key_pressed nRST
X_2106_ input_ctrl_inst.debounce_cnt\[14\] _1057_ _1146_ VGND VGND VPWR VPWR _1164_
+ sky130_fd_sc_hd__o21bai_1
XFILLER_39_277 VGND VGND VPWR VPWR sky130_fd_sc_hd__decap_3
XFILLER_39_222 VGND VGND VPWR VPWR sky130_fd_sc_hd__fill_2
X_2037_ gencon_inst.mult_calc.count.GENERATE_ADDER\[13\].thingy.in1 _1074_ VGND VGND
+ VPWR VPWR _1111_ sky130_fd_sc_hd__xnor2_1
XTAP_TAPCELL_ROW_20_312 VGND VPWR sky130_fd_sc_hd__tapvpwrvgnd_1
XFILLER_60_217 VGND VGND VPWR VPWR sky130_fd_sc_hd__decap_6
XFILLER_45_225 VPWR VGND VPWR VGND sky130_ef_sc_hd__decap_12
XFILLER_26_85 VGND VGND VPWR VPWR sky130_fd_sc_hd__decap_4
XFILLER_13_133 VPWR VGND VPWR VGND sky130_ef_sc_hd__decap_12
XFILLER_9_104 VGND VGND VPWR VPWR sky130_fd_sc_hd__decap_4
XFILLER_68_317 VGND VGND VPWR VPWR sky130_fd_sc_hd__fill_1
XFILLER_67_81 VPWR VGND VPWR VGND sky130_ef_sc_hd__decap_12
X_1270_ gencon_inst.operand1\[10\] _0605_ _0609_ VGND VGND VPWR VPWR _0610_ sky130_fd_sc_hd__a21oi_1
XTAP_TAPCELL_ROW_42_481 VGND VPWR sky130_fd_sc_hd__tapvpwrvgnd_1
XTAP_TAPCELL_ROW_34_415 VGND VPWR sky130_fd_sc_hd__tapvpwrvgnd_1
X_1606_ gencon_inst.add_calc.main.GENERATE_ADDER\[1\].thingy.in1 _0827_ VGND VGND
+ VPWR VPWR _0828_ sky130_fd_sc_hd__nor2_1
X_2724_ clknet_leaf_20_clk _0278_ net154 VGND VGND VPWR VPWR gencon_inst.add_calc.main.GENERATE_ADDER\[13\].thingy.in1
+ sky130_fd_sc_hd__dfrtp_1
X_2655_ clknet_leaf_28_clk net336 net143 VGND VGND VPWR VPWR gencon_inst.mult_calc.compCount.in2\[12\]
+ sky130_fd_sc_hd__dfrtp_1
XFILLER_74_309 VPWR VGND VPWR VGND sky130_ef_sc_hd__decap_12
Xfanout105 net108 VGND VGND VPWR VPWR net105 sky130_fd_sc_hd__buf_2
Xfanout149 net150 VGND VGND VPWR VPWR net149 sky130_fd_sc_hd__clkbuf_4
Xfanout116 net117 VGND VGND VPWR VPWR net116 sky130_fd_sc_hd__clkbuf_2
X_1468_ net396 net89 _0705_ net101 VGND VGND VPWR VPWR _0219_ sky130_fd_sc_hd__a22o_1
X_1537_ gencon_inst.mult_calc.main.GENERATE_ADDER\[13\].thingy.in2 gencon_inst.mult_calc.main.GENERATE_ADDER\[13\].thingy.in1
+ VGND VGND VPWR VPWR _0764_ sky130_fd_sc_hd__and2_1
Xfanout138 net157 VGND VGND VPWR VPWR net138 sky130_fd_sc_hd__clkbuf_4
Xfanout127 net137 VGND VGND VPWR VPWR net127 sky130_fd_sc_hd__buf_2
X_2586_ clknet_leaf_31_clk _0145_ net139 VGND VGND VPWR VPWR gencon_inst.mult_calc.countSave\[7\]
+ sky130_fd_sc_hd__dfrtp_1
X_1399_ gencon_inst.mult_calc.out\[8\] net404 net104 VGND VGND VPWR VPWR _0163_ sky130_fd_sc_hd__mux2_1
Xhold170 input_ctrl_inst.scan_timer\[10\] VGND VGND VPWR VPWR net327 sky130_fd_sc_hd__dlygate4sd3_1
Xhold192 gencon_inst.mult_calc.main.GENERATE_ADDER\[2\].thingy.in2 VGND VGND VPWR
+ VPWR net349 sky130_fd_sc_hd__dlygate4sd3_1
XFILLER_2_357 VGND VGND VPWR VPWR sky130_fd_sc_hd__decap_6
Xhold181 gencon_inst.mult_calc.compCount.in2\[1\] VGND VGND VPWR VPWR net338 sky130_fd_sc_hd__dlygate4sd3_1
XFILLER_73_353 VPWR VGND VPWR VGND sky130_ef_sc_hd__decap_12
XTAP_TAPCELL_ROW_56_584 VGND VPWR sky130_fd_sc_hd__tapvpwrvgnd_1
X_2440_ clknet_leaf_1_clk _0038_ VGND VGND VPWR VPWR input_ctrl_inst.scan_timer\[6\]
+ sky130_fd_sc_hd__dfxtp_1
XFILLER_56_309 VGND VGND VPWR VPWR sky130_fd_sc_hd__decap_4
X_1253_ gencon_inst.operand1\[6\] net35 _0595_ _0596_ VGND VGND VPWR VPWR _0113_ sky130_fd_sc_hd__o22a_1
X_1322_ gencon_inst.operand2\[4\] _0644_ _0647_ VGND VGND VPWR VPWR _0653_ sky130_fd_sc_hd__or3_1
X_2371_ input_ctrl_inst.col_index\[13\] _0515_ net420 VGND VGND VPWR VPWR _0516_ sky130_fd_sc_hd__a21oi_1
XFILLER_64_375 VGND VGND VPWR VPWR sky130_fd_sc_hd__decap_4
XFILLER_32_261 VGND VGND VPWR VPWR sky130_fd_sc_hd__fill_2
X_2707_ clknet_leaf_19_clk _0261_ net155 VGND VGND VPWR VPWR gencon_inst.add_calc.main.in2\[11\]
+ sky130_fd_sc_hd__dfrtp_1
X_2569_ clknet_leaf_21_clk _0132_ net152 VGND VGND VPWR VPWR gencon_inst.operand2\[10\]
+ sky130_fd_sc_hd__dfrtp_4
X_2638_ clknet_leaf_26_clk _0197_ net146 VGND VGND VPWR VPWR gencon_inst.mult_calc.main.GENERATE_ADDER\[10\].thingy.in1
+ sky130_fd_sc_hd__dfrtp_1
XFILLER_74_139 VGND VGND VPWR VPWR sky130_fd_sc_hd__fill_1
XFILLER_74_27 VGND VGND VPWR VPWR sky130_fd_sc_hd__fill_1
XTAP_TAPCELL_ROW_2_176 VGND VPWR sky130_fd_sc_hd__tapvpwrvgnd_1
XFILLER_11_401 VPWR VGND VPWR VGND sky130_ef_sc_hd__decap_12
XFILLER_23_97 VPWR VGND VPWR VGND sky130_ef_sc_hd__decap_12
XFILLER_7_405 VPWR VGND VPWR VGND sky130_ef_sc_hd__decap_12
XFILLER_11_445 VGND VGND VPWR VPWR sky130_fd_sc_hd__fill_2
XFILLER_2_165 VPWR VGND VPWR VGND sky130_ef_sc_hd__decap_12
XFILLER_73_161 VGND VGND VPWR VPWR sky130_fd_sc_hd__fill_2
XFILLER_46_397 VGND VGND VPWR VPWR sky130_fd_sc_hd__decap_6
XFILLER_46_320 VGND VGND VPWR VPWR sky130_fd_sc_hd__decap_8
XFILLER_0_57 VPWR VGND VPWR VGND sky130_ef_sc_hd__decap_12
X_1871_ net162 _0954_ _0985_ VGND VGND VPWR VPWR _0342_ sky130_fd_sc_hd__o21ai_1
X_1940_ gencon_inst.operand2\[12\] net64 net41 net340 VGND VGND VPWR VPWR _0373_ sky130_fd_sc_hd__a22o_1
XFILLER_9_11 VGND VGND VPWR VPWR sky130_fd_sc_hd__fill_1
XFILLER_50_3 VPWR VGND VPWR VGND sky130_ef_sc_hd__decap_12
X_2423_ input_ctrl_inst.col_index\[30\] _0550_ _0523_ VGND VGND VPWR VPWR _0552_ sky130_fd_sc_hd__a21boi_1
XTAP_TAPCELL_ROW_67_668 VGND VPWR sky130_fd_sc_hd__tapvpwrvgnd_1
X_1236_ _0580_ _0581_ _0573_ _0576_ VGND VGND VPWR VPWR _0583_ sky130_fd_sc_hd__a211o_1
X_1305_ gencon_inst.operand2\[2\] gencon_inst.latched_keypad_input\[2\] VGND VGND
+ VPWR VPWR _0638_ sky130_fd_sc_hd__and2_1
X_2285_ _0445_ _0470_ _0472_ VGND VGND VPWR VPWR _0046_ sky130_fd_sc_hd__and3_1
X_2354_ net310 _0506_ VGND VGND VPWR VPWR _0081_ sky130_fd_sc_hd__xor2_1
XTAP_TAPCELL_ROW_50_535 VGND VPWR sky130_fd_sc_hd__tapvpwrvgnd_1
XFILLER_4_419 VGND VGND VPWR VPWR sky130_fd_sc_hd__fill_1
XFILLER_20_253 VGND VGND VPWR VPWR sky130_fd_sc_hd__fill_1
XFILLER_20_286 VGND VGND VPWR VPWR sky130_fd_sc_hd__fill_2
XFILLER_69_27 VPWR VGND VPWR VGND sky130_ef_sc_hd__decap_12
XTAP_TAPCELL_ROW_7_213 VGND VPWR sky130_fd_sc_hd__tapvpwrvgnd_1
XFILLER_55_150 VPWR VGND VPWR VGND sky130_ef_sc_hd__decap_12
XFILLER_18_42 VGND VGND VPWR VPWR sky130_fd_sc_hd__decap_8
XFILLER_70_197 VGND VGND VPWR VPWR sky130_fd_sc_hd__decap_8
XFILLER_70_153 VPWR VGND VPWR VGND sky130_ef_sc_hd__decap_12
XFILLER_34_85 VPWR VGND VPWR VGND sky130_ef_sc_hd__decap_12
XFILLER_11_242 VGND VGND VPWR VPWR sky130_fd_sc_hd__fill_1
XTAP_TAPCELL_ROW_13_259 VGND VPWR sky130_fd_sc_hd__tapvpwrvgnd_1
XFILLER_50_51 VPWR VGND VPWR VGND sky130_ef_sc_hd__decap_12
XFILLER_3_441 VGND VGND VPWR VPWR sky130_fd_sc_hd__decap_6
XFILLER_7_279 VGND VGND VPWR VPWR sky130_fd_sc_hd__fill_1
XFILLER_11_297 VGND VGND VPWR VPWR sky130_fd_sc_hd__fill_2
X_2070_ _1136_ VGND VGND VPWR VPWR _1137_ sky130_fd_sc_hd__inv_2
XFILLER_19_331 VGND VGND VPWR VPWR sky130_fd_sc_hd__decap_4
XFILLER_75_81 VGND VGND VPWR VPWR sky130_fd_sc_hd__decap_3
XFILLER_53_109 VGND VGND VPWR VPWR sky130_fd_sc_hd__decap_3
XTAP_TAPCELL_ROW_29_381 VGND VPWR sky130_fd_sc_hd__tapvpwrvgnd_1
X_1854_ gencon_inst.operand1\[11\] net267 net62 VGND VGND VPWR VPWR _0329_ sky130_fd_sc_hd__mux2_1
X_1785_ gencon_inst.operand2\[0\] gencon_inst.operand1\[0\] net76 VGND VGND VPWR VPWR
+ _0961_ sky130_fd_sc_hd__mux2_1
X_1923_ gencon_inst.operand2\[14\] _1204_ net74 gencon_inst.ALU_out\[14\] VGND VGND
+ VPWR VPWR _1021_ sky130_fd_sc_hd__a22o_1
X_2406_ input_ctrl_inst.col_index\[25\] _0537_ VGND VGND VPWR VPWR _0540_ sky130_fd_sc_hd__xor2_1
X_1219_ _0562_ _0567_ VGND VGND VPWR VPWR _0568_ sky130_fd_sc_hd__nor2_1
X_2268_ input_ctrl_inst.scan_timer\[7\] input_ctrl_inst.scan_timer\[8\] _0459_ VGND
+ VGND VPWR VPWR _0462_ sky130_fd_sc_hd__and3_1
XFILLER_25_334 VGND VGND VPWR VPWR sky130_fd_sc_hd__fill_2
X_2199_ input_ctrl_inst.col_index\[25\] input_ctrl_inst.col_index\[27\] input_ctrl_inst.col_index\[26\]
+ input_ctrl_inst.col_index\[29\] VGND VGND VPWR VPWR _0410_ sky130_fd_sc_hd__or4_1
X_2337_ net95 net262 net80 gencon_inst.mult_calc.count.GENERATE_ADDER\[14\].thingy.in1
+ VGND VGND VPWR VPWR _0074_ sky130_fd_sc_hd__a22o_1
XFILLER_71_39 VPWR VGND VPWR VGND sky130_ef_sc_hd__decap_12
XFILLER_40_359 VGND VGND VPWR VPWR sky130_fd_sc_hd__decap_4
XFILLER_40_326 VGND VGND VPWR VPWR sky130_fd_sc_hd__fill_2
XFILLER_20_76 VGND VGND VPWR VPWR sky130_fd_sc_hd__fill_1
XFILLER_75_245 VGND VGND VPWR VPWR sky130_fd_sc_hd__decap_6
XFILLER_75_223 VGND VGND VPWR VPWR sky130_fd_sc_hd__fill_1
Xhold63 gencon_inst.ALU_in2\[9\] VGND VGND VPWR VPWR net220 sky130_fd_sc_hd__dlygate4sd3_1
Xhold74 gencon_inst.ALU_in1\[0\] VGND VGND VPWR VPWR net231 sky130_fd_sc_hd__dlygate4sd3_1
XFILLER_48_415 VGND VGND VPWR VPWR sky130_fd_sc_hd__decap_4
Xhold41 gencon_inst.mult_calc.INn2\[15\] VGND VGND VPWR VPWR net198 sky130_fd_sc_hd__dlygate4sd3_1
Xhold30 gencon_inst.mult_calc.main.GENERATE_ADDER\[4\].thingy.in1 VGND VGND VPWR VPWR
+ net187 sky130_fd_sc_hd__dlygate4sd3_1
Xhold52 gencon_inst.mult_calc.INn2\[3\] VGND VGND VPWR VPWR net209 sky130_fd_sc_hd__dlygate4sd3_1
XFILLER_29_85 VGND VGND VPWR VPWR sky130_fd_sc_hd__fill_2
XFILLER_29_52 VGND VGND VPWR VPWR sky130_fd_sc_hd__decap_4
XFILLER_0_433 VPWR VGND VPWR VGND sky130_ef_sc_hd__decap_12
XFILLER_75_278 VGND VGND VPWR VPWR sky130_fd_sc_hd__fill_2
XTAP_TAPCELL_ROW_61_619 VGND VPWR sky130_fd_sc_hd__tapvpwrvgnd_1
XFILLER_43_164 VGND VGND VPWR VPWR sky130_fd_sc_hd__decap_4
Xhold85 gencon_inst.mult_calc.INn1\[15\] VGND VGND VPWR VPWR net242 sky130_fd_sc_hd__dlygate4sd3_1
Xhold96 _0068_ VGND VGND VPWR VPWR net253 sky130_fd_sc_hd__dlygate4sd3_1
XFILLER_43_197 VGND VGND VPWR VPWR sky130_fd_sc_hd__decap_8
XFILLER_31_337 VGND VGND VPWR VPWR sky130_fd_sc_hd__decap_4
X_1570_ net107 gencon_inst.add_calc.main.in2\[10\] VGND VGND VPWR VPWR _0792_ sky130_fd_sc_hd__nand2_1
XFILLER_3_293 VPWR VGND VPWR VGND sky130_ef_sc_hd__decap_12
XFILLER_6_89 VGND VGND VPWR VPWR sky130_fd_sc_hd__fill_2
XFILLER_66_234 VGND VGND VPWR VPWR sky130_fd_sc_hd__decap_8
X_2122_ input_ctrl_inst.debounce_cnt\[17\] _1173_ input_ctrl_inst.debounce_cnt\[18\]
+ VGND VGND VPWR VPWR _1176_ sky130_fd_sc_hd__a21oi_1
X_2053_ _1047_ _1048_ VGND VGND VPWR VPWR _1124_ sky130_fd_sc_hd__nand2_1
XFILLER_13_3 VPWR VGND VPWR VGND sky130_ef_sc_hd__decap_12
XFILLER_34_197 VGND VGND VPWR VPWR sky130_fd_sc_hd__fill_1
X_1837_ gencon_inst.operand2\[10\] net202 net62 VGND VGND VPWR VPWR _0312_ sky130_fd_sc_hd__mux2_1
X_1768_ gencon_inst.ALU_in2\[12\] gencon_inst.ALU_in1\[12\] net69 VGND VGND VPWR VPWR
+ _0948_ sky130_fd_sc_hd__mux2_1
X_1906_ net66 _0970_ net57 gencon_inst.mult_calc.out\[8\] VGND VGND VPWR VPWR _1010_
+ sky130_fd_sc_hd__a22o_1
X_1699_ _0852_ _0906_ _0908_ net85 VGND VGND VPWR VPWR _0910_ sky130_fd_sc_hd__a31o_1
XFILLER_40_145 VGND VGND VPWR VPWR sky130_fd_sc_hd__fill_1
XTAP_TAPCELL_ROW_23_332 VGND VPWR sky130_fd_sc_hd__tapvpwrvgnd_1
Xoutput20 net20 VGND VGND VPWR VPWR display_output[3] sky130_fd_sc_hd__buf_2
Xoutput7 net7 VGND VGND VPWR VPWR ColOut[1] sky130_fd_sc_hd__buf_2
XFILLER_56_83 VGND VGND VPWR VPWR sky130_fd_sc_hd__fill_1
XFILLER_31_123 VGND VGND VPWR VPWR sky130_fd_sc_hd__decap_4
XFILLER_16_153 VPWR VGND VPWR VGND sky130_ef_sc_hd__decap_12
XFILLER_16_197 VGND VGND VPWR VPWR sky130_fd_sc_hd__decap_4
X_1622_ _0793_ _0797_ _0842_ _0794_ VGND VGND VPWR VPWR _0844_ sky130_fd_sc_hd__o31a_1
X_2740_ clknet_leaf_21_clk _0294_ VGND VGND VPWR VPWR gencon_inst.mult_calc.INn1\[13\]
+ sky130_fd_sc_hd__dfxtp_1
XFILLER_31_189 VGND VGND VPWR VPWR sky130_fd_sc_hd__decap_8
XFILLER_8_363 VGND VGND VPWR VPWR sky130_fd_sc_hd__fill_1
X_2671_ clknet_leaf_27_clk _0230_ net145 VGND VGND VPWR VPWR gencon_inst.mult_calc.adderSave\[13\]
+ sky130_fd_sc_hd__dfrtp_1
X_1553_ net441 _0775_ net113 VGND VGND VPWR VPWR _0234_ sky130_fd_sc_hd__mux2_1
X_1484_ gencon_inst.mult_calc.main.GENERATE_ADDER\[5\].thingy.in2 gencon_inst.mult_calc.main.GENERATE_ADDER\[5\].thingy.in1
+ VGND VGND VPWR VPWR _0719_ sky130_fd_sc_hd__nand2_1
X_2105_ input_ctrl_inst.debounce_cnt\[13\] input_ctrl_inst.debounce_cnt\[14\] _1157_
+ VGND VGND VPWR VPWR _1163_ sky130_fd_sc_hd__and3_1
X_2036_ gencon_inst.mult_calc.compCount.in2\[10\] _1105_ _1109_ gencon_inst.mult_calc.compCount.in2\[11\]
+ VGND VGND VPWR VPWR _1110_ sky130_fd_sc_hd__o22a_1
XFILLER_50_410 VGND VGND VPWR VPWR sky130_fd_sc_hd__decap_8
XFILLER_10_307 VGND VGND VPWR VPWR sky130_fd_sc_hd__fill_1
XTAP_TAPCELL_ROW_20_313 VGND VPWR sky130_fd_sc_hd__tapvpwrvgnd_1
XFILLER_22_101 VPWR VGND VPWR VGND sky130_ef_sc_hd__decap_12
XFILLER_60_207 VGND VGND VPWR VPWR sky130_fd_sc_hd__fill_2
XFILLER_45_237 VPWR VGND VPWR VGND sky130_ef_sc_hd__decap_12
XFILLER_13_145 VPWR VGND VPWR VGND sky130_ef_sc_hd__decap_12
XFILLER_3_57 VPWR VGND VPWR VGND sky130_ef_sc_hd__decap_12
XFILLER_67_93 VPWR VGND VPWR VGND sky130_ef_sc_hd__decap_12
XFILLER_51_218 VGND VGND VPWR VPWR sky130_fd_sc_hd__decap_3
XFILLER_51_207 VGND VGND VPWR VPWR sky130_fd_sc_hd__fill_1
XTAP_TAPCELL_ROW_34_416 VGND VPWR sky130_fd_sc_hd__tapvpwrvgnd_1
X_2723_ clknet_leaf_20_clk _0277_ net155 VGND VGND VPWR VPWR gencon_inst.add_calc.main.GENERATE_ADDER\[12\].thingy.in1
+ sky130_fd_sc_hd__dfrtp_1
XFILLER_44_270 VPWR VGND VPWR VGND sky130_ef_sc_hd__decap_12
X_1605_ gencon_inst.add_calc.main.in2\[1\] net105 VGND VGND VPWR VPWR _0827_ sky130_fd_sc_hd__xor2_1
X_1536_ gencon_inst.mult_calc.main.GENERATE_ADDER\[13\].thingy.in2 gencon_inst.mult_calc.main.GENERATE_ADDER\[13\].thingy.in1
+ VGND VGND VPWR VPWR _0763_ sky130_fd_sc_hd__nor2_1
X_2585_ clknet_leaf_31_clk _0144_ net138 VGND VGND VPWR VPWR gencon_inst.mult_calc.countSave\[6\]
+ sky130_fd_sc_hd__dfrtp_1
X_2654_ clknet_leaf_28_clk _0213_ net144 VGND VGND VPWR VPWR gencon_inst.mult_calc.compCount.in2\[11\]
+ sky130_fd_sc_hd__dfrtp_1
Xfanout106 net108 VGND VGND VPWR VPWR net106 sky130_fd_sc_hd__clkbuf_2
Xfanout128 net129 VGND VGND VPWR VPWR net128 sky130_fd_sc_hd__clkbuf_4
Xfanout117 _1031_ VGND VGND VPWR VPWR net117 sky130_fd_sc_hd__clkbuf_2
X_1398_ gencon_inst.mult_calc.out\[7\] net296 net104 VGND VGND VPWR VPWR _0162_ sky130_fd_sc_hd__mux2_1
X_1467_ _0702_ _0704_ VGND VGND VPWR VPWR _0705_ sky130_fd_sc_hd__xnor2_1
Xfanout139 net157 VGND VGND VPWR VPWR net139 sky130_fd_sc_hd__clkbuf_4
XFILLER_50_251 VGND VGND VPWR VPWR sky130_fd_sc_hd__fill_1
X_2019_ gencon_inst.mult_calc.compCount.in2\[3\] _1083_ _1092_ gencon_inst.mult_calc.compCount.in2\[4\]
+ _1091_ VGND VGND VPWR VPWR _1093_ sky130_fd_sc_hd__o221a_1
XPHY_EDGE_ROW_19_Left_95 VGND VGND VPWR VPWR sky130_fd_sc_hd__decap_3
XFILLER_50_273 VGND VGND VPWR VPWR sky130_fd_sc_hd__decap_6
XFILLER_50_262 VGND VGND VPWR VPWR sky130_fd_sc_hd__fill_1
Xhold182 gencon_inst.add_calc.main.in2\[13\] VGND VGND VPWR VPWR net339 sky130_fd_sc_hd__dlygate4sd3_1
Xhold160 _0185_ VGND VGND VPWR VPWR net317 sky130_fd_sc_hd__dlygate4sd3_1
Xhold193 _0173_ VGND VGND VPWR VPWR net350 sky130_fd_sc_hd__dlygate4sd3_1
Xhold171 gencon_inst.mult_calc.compCount.in2\[5\] VGND VGND VPWR VPWR net328 sky130_fd_sc_hd__dlygate4sd3_1
XFILLER_73_365 VGND VGND VPWR VPWR sky130_fd_sc_hd__decap_6
XFILLER_73_310 VGND VGND VPWR VPWR sky130_fd_sc_hd__decap_6
XFILLER_58_395 VGND VGND VPWR VPWR sky130_fd_sc_hd__decap_8
XTAP_TAPCELL_ROW_48_519 VGND VPWR sky130_fd_sc_hd__tapvpwrvgnd_1
XFILLER_37_85 VGND VGND VPWR VPWR sky130_fd_sc_hd__fill_2