* NGSPICE file created from fpga.ext - technology: sky130A

* Black-box entry subcircuit for sky130_fd_sc_hd__diode_2 abstract view
.subckt sky130_fd_sc_hd__diode_2 DIODE VGND VNB VPB VPWR
.ends

* Black-box entry subcircuit for sky130_ef_sc_hd__decap_12 abstract view
.subckt sky130_ef_sc_hd__decap_12 VPWR VGND VPB VNB
.ends

* Black-box entry subcircuit for sky130_fd_sc_hd__decap_3 abstract view
.subckt sky130_fd_sc_hd__decap_3 VGND VNB VPB VPWR
.ends

* Black-box entry subcircuit for sky130_fd_sc_hd__fill_1 abstract view
.subckt sky130_fd_sc_hd__fill_1 VGND VNB VPB VPWR
.ends

* Black-box entry subcircuit for sky130_fd_sc_hd__decap_8 abstract view
.subckt sky130_fd_sc_hd__decap_8 VGND VNB VPB VPWR
.ends

* Black-box entry subcircuit for sky130_fd_sc_hd__fill_2 abstract view
.subckt sky130_fd_sc_hd__fill_2 VGND VNB VPB VPWR
.ends

* Black-box entry subcircuit for sky130_fd_sc_hd__tapvpwrvgnd_1 abstract view
.subckt sky130_fd_sc_hd__tapvpwrvgnd_1 VGND VPWR
.ends

* Black-box entry subcircuit for sky130_fd_sc_hd__decap_6 abstract view
.subckt sky130_fd_sc_hd__decap_6 VGND VNB VPB VPWR
.ends

* Black-box entry subcircuit for sky130_fd_sc_hd__buf_2 abstract view
.subckt sky130_fd_sc_hd__buf_2 A VGND VNB VPB VPWR X
.ends

* Black-box entry subcircuit for sky130_fd_sc_hd__decap_4 abstract view
.subckt sky130_fd_sc_hd__decap_4 VGND VNB VPB VPWR
.ends

* Black-box entry subcircuit for sky130_fd_sc_hd__clkbuf_1 abstract view
.subckt sky130_fd_sc_hd__clkbuf_1 A VGND VNB VPB VPWR X
.ends

* Black-box entry subcircuit for sky130_fd_sc_hd__buf_1 abstract view
.subckt sky130_fd_sc_hd__buf_1 A VGND VNB VPB VPWR X
.ends

* Black-box entry subcircuit for sky130_fd_sc_hd__buf_4 abstract view
.subckt sky130_fd_sc_hd__buf_4 A VGND VNB VPB VPWR X
.ends

* Black-box entry subcircuit for sky130_fd_sc_hd__clkbuf_16 abstract view
.subckt sky130_fd_sc_hd__clkbuf_16 A VGND VNB VPB VPWR X
.ends

* Black-box entry subcircuit for sky130_fd_sc_hd__clkbuf_8 abstract view
.subckt sky130_fd_sc_hd__clkbuf_8 A VGND VNB VPB VPWR X
.ends

* Black-box entry subcircuit for sky130_fd_sc_hd__dlymetal6s2s_1 abstract view
.subckt sky130_fd_sc_hd__dlymetal6s2s_1 A VGND VNB VPB VPWR X
.ends

* Black-box entry subcircuit for fpgacell abstract view
.subckt fpgacell CBeast_in[0] CBeast_in[10] CBeast_in[11] CBeast_in[12] CBeast_in[13]
+ CBeast_in[1] CBeast_in[2] CBeast_in[3] CBeast_in[4] CBeast_in[5] CBeast_in[6] CBeast_in[7]
+ CBeast_in[8] CBeast_in[9] CBeast_out[0] CBeast_out[10] CBeast_out[11] CBeast_out[12]
+ CBeast_out[13] CBeast_out[1] CBeast_out[2] CBeast_out[3] CBeast_out[4] CBeast_out[5]
+ CBeast_out[6] CBeast_out[7] CBeast_out[8] CBeast_out[9] CBnorth_in[0] CBnorth_in[10]
+ CBnorth_in[11] CBnorth_in[12] CBnorth_in[13] CBnorth_in[1] CBnorth_in[2] CBnorth_in[3]
+ CBnorth_in[4] CBnorth_in[5] CBnorth_in[6] CBnorth_in[7] CBnorth_in[8] CBnorth_in[9]
+ CBnorth_out[0] CBnorth_out[10] CBnorth_out[11] CBnorth_out[12] CBnorth_out[13] CBnorth_out[1]
+ CBnorth_out[2] CBnorth_out[3] CBnorth_out[4] CBnorth_out[5] CBnorth_out[6] CBnorth_out[7]
+ CBnorth_out[8] CBnorth_out[9] SBsouth_in[0] SBsouth_in[10] SBsouth_in[11] SBsouth_in[12]
+ SBsouth_in[13] SBsouth_in[1] SBsouth_in[2] SBsouth_in[3] SBsouth_in[4] SBsouth_in[5]
+ SBsouth_in[6] SBsouth_in[7] SBsouth_in[8] SBsouth_in[9] SBsouth_out[0] SBsouth_out[10]
+ SBsouth_out[11] SBsouth_out[12] SBsouth_out[13] SBsouth_out[1] SBsouth_out[2] SBsouth_out[3]
+ SBsouth_out[4] SBsouth_out[5] SBsouth_out[6] SBsouth_out[7] SBsouth_out[8] SBsouth_out[9]
+ SBwest_in[0] SBwest_in[10] SBwest_in[11] SBwest_in[12] SBwest_in[13] SBwest_in[1]
+ SBwest_in[2] SBwest_in[3] SBwest_in[4] SBwest_in[5] SBwest_in[6] SBwest_in[7] SBwest_in[8]
+ SBwest_in[9] SBwest_out[0] SBwest_out[10] SBwest_out[11] SBwest_out[12] SBwest_out[13]
+ SBwest_out[1] SBwest_out[2] SBwest_out[3] SBwest_out[4] SBwest_out[5] SBwest_out[6]
+ SBwest_out[7] SBwest_out[8] SBwest_out[9] clk config_data_in config_data_out config_en
+ le_clk le_en le_nrst nrst vccd1 vssd1
.ends

* Black-box entry subcircuit for sky130_fd_sc_hd__conb_1 abstract view
.subckt sky130_fd_sc_hd__conb_1 VGND VNB VPB VPWR HI LO
.ends

.subckt fpga clk config_data_in config_data_out config_en io_east_in[0] io_east_in[10]
+ io_east_in[11] io_east_in[12] io_east_in[13] io_east_in[14] io_east_in[15] io_east_in[16]
+ io_east_in[17] io_east_in[18] io_east_in[19] io_east_in[1] io_east_in[20] io_east_in[21]
+ io_east_in[22] io_east_in[23] io_east_in[24] io_east_in[25] io_east_in[26] io_east_in[27]
+ io_east_in[28] io_east_in[29] io_east_in[2] io_east_in[30] io_east_in[31] io_east_in[3]
+ io_east_in[4] io_east_in[5] io_east_in[6] io_east_in[7] io_east_in[8] io_east_in[9]
+ io_east_out[0] io_east_out[10] io_east_out[11] io_east_out[12] io_east_out[13] io_east_out[14]
+ io_east_out[15] io_east_out[16] io_east_out[17] io_east_out[18] io_east_out[19]
+ io_east_out[1] io_east_out[20] io_east_out[21] io_east_out[22] io_east_out[23] io_east_out[24]
+ io_east_out[25] io_east_out[26] io_east_out[27] io_east_out[28] io_east_out[29]
+ io_east_out[2] io_east_out[30] io_east_out[31] io_east_out[3] io_east_out[4] io_east_out[5]
+ io_east_out[6] io_east_out[7] io_east_out[8] io_east_out[9] io_north_in[0] io_north_in[10]
+ io_north_in[11] io_north_in[12] io_north_in[13] io_north_in[14] io_north_in[15]
+ io_north_in[16] io_north_in[17] io_north_in[18] io_north_in[19] io_north_in[1] io_north_in[20]
+ io_north_in[21] io_north_in[22] io_north_in[23] io_north_in[24] io_north_in[25]
+ io_north_in[26] io_north_in[27] io_north_in[28] io_north_in[29] io_north_in[2] io_north_in[30]
+ io_north_in[31] io_north_in[3] io_north_in[4] io_north_in[5] io_north_in[6] io_north_in[7]
+ io_north_in[8] io_north_in[9] io_north_out[0] io_north_out[10] io_north_out[11]
+ io_north_out[12] io_north_out[13] io_north_out[14] io_north_out[15] io_north_out[16]
+ io_north_out[17] io_north_out[18] io_north_out[19] io_north_out[1] io_north_out[20]
+ io_north_out[21] io_north_out[22] io_north_out[23] io_north_out[24] io_north_out[25]
+ io_north_out[26] io_north_out[27] io_north_out[28] io_north_out[29] io_north_out[2]
+ io_north_out[30] io_north_out[31] io_north_out[3] io_north_out[4] io_north_out[5]
+ io_north_out[6] io_north_out[7] io_north_out[8] io_north_out[9] io_south_in[0] io_south_in[10]
+ io_south_in[11] io_south_in[12] io_south_in[13] io_south_in[14] io_south_in[15]
+ io_south_in[16] io_south_in[17] io_south_in[18] io_south_in[19] io_south_in[1] io_south_in[20]
+ io_south_in[21] io_south_in[22] io_south_in[23] io_south_in[24] io_south_in[25]
+ io_south_in[26] io_south_in[27] io_south_in[28] io_south_in[29] io_south_in[2] io_south_in[30]
+ io_south_in[31] io_south_in[3] io_south_in[4] io_south_in[5] io_south_in[6] io_south_in[7]
+ io_south_in[8] io_south_in[9] io_south_out[0] io_south_out[10] io_south_out[11]
+ io_south_out[12] io_south_out[13] io_south_out[14] io_south_out[15] io_south_out[16]
+ io_south_out[17] io_south_out[18] io_south_out[19] io_south_out[1] io_south_out[20]
+ io_south_out[21] io_south_out[22] io_south_out[23] io_south_out[24] io_south_out[25]
+ io_south_out[26] io_south_out[27] io_south_out[28] io_south_out[29] io_south_out[2]
+ io_south_out[30] io_south_out[31] io_south_out[3] io_south_out[4] io_south_out[5]
+ io_south_out[6] io_south_out[7] io_south_out[8] io_south_out[9] io_west_in[0] io_west_in[10]
+ io_west_in[11] io_west_in[12] io_west_in[13] io_west_in[14] io_west_in[15] io_west_in[16]
+ io_west_in[17] io_west_in[18] io_west_in[19] io_west_in[1] io_west_in[20] io_west_in[21]
+ io_west_in[22] io_west_in[23] io_west_in[24] io_west_in[25] io_west_in[26] io_west_in[27]
+ io_west_in[28] io_west_in[29] io_west_in[2] io_west_in[30] io_west_in[31] io_west_in[3]
+ io_west_in[4] io_west_in[5] io_west_in[6] io_west_in[7] io_west_in[8] io_west_in[9]
+ io_west_out[0] io_west_out[10] io_west_out[11] io_west_out[12] io_west_out[13] io_west_out[14]
+ io_west_out[15] io_west_out[16] io_west_out[17] io_west_out[18] io_west_out[19]
+ io_west_out[1] io_west_out[20] io_west_out[21] io_west_out[22] io_west_out[23] io_west_out[24]
+ io_west_out[25] io_west_out[26] io_west_out[27] io_west_out[28] io_west_out[29]
+ io_west_out[2] io_west_out[30] io_west_out[31] io_west_out[3] io_west_out[4] io_west_out[5]
+ io_west_out[6] io_west_out[7] io_west_out[8] io_west_out[9] le_clk le_en le_nrst
+ nrst vccd1 vssd1
XANTENNA_cell1_config_en input2/X vssd1 vssd1 vccd1 vccd1 sky130_fd_sc_hd__diode_2
XFILLER_149_853 vccd1 vssd1 vccd1 vssd1 sky130_ef_sc_hd__decap_12
XPHY_EDGE_ROW_93_1_Right_532 vssd1 vssd1 vccd1 vccd1 sky130_fd_sc_hd__decap_3
XFILLER_52_29 vssd1 vssd1 vccd1 vccd1 sky130_fd_sc_hd__fill_1
XFILLER_149_897 vssd1 vssd1 vccd1 vccd1 sky130_fd_sc_hd__decap_8
XFILLER_151_517 vssd1 vssd1 vccd1 vccd1 sky130_fd_sc_hd__fill_2
XFILLER_148_363 vssd1 vssd1 vccd1 vccd1 sky130_fd_sc_hd__fill_1
XFILLER_105_901 vssd1 vssd1 vccd1 vccd1 sky130_fd_sc_hd__fill_2
XFILLER_77_15 vccd1 vssd1 vccd1 vssd1 sky130_ef_sc_hd__decap_12
XANTENNA_input92_A io_west_in[16] vssd1 vssd1 vccd1 vccd1 sky130_fd_sc_hd__diode_2
XFILLER_6_877 vccd1 vssd1 vccd1 vssd1 sky130_ef_sc_hd__decap_12
XTAP_TAPCELL_ROW_144_3_965 vssd1 vccd1 sky130_fd_sc_hd__tapvpwrvgnd_1
XFILLER_149_149 vccd1 vssd1 vccd1 vssd1 sky130_ef_sc_hd__decap_12
XFILLER_149_105 vssd1 vssd1 vccd1 vccd1 sky130_fd_sc_hd__decap_6
XPHY_EDGE_ROW_43_3_Right_49 vssd1 vssd1 vccd1 vccd1 sky130_fd_sc_hd__decap_3
XPHY_EDGE_ROW_116_3_Left_415 vssd1 vssd1 vccd1 vccd1 sky130_fd_sc_hd__decap_3
XPHY_EDGE_ROW_94_1_Right_533 vssd1 vssd1 vccd1 vccd1 sky130_fd_sc_hd__decap_3
XFILLER_137_889 vccd1 vssd1 vccd1 vssd1 sky130_ef_sc_hd__decap_12
XPHY_EDGE_ROW_5_1_Right_585 vssd1 vssd1 vccd1 vccd1 sky130_fd_sc_hd__decap_3
XFILLER_2_357 vssd1 vssd1 vccd1 vccd1 sky130_fd_sc_hd__decap_6
XTAP_TAPCELL_ROW_147_806 vssd1 vccd1 sky130_fd_sc_hd__tapvpwrvgnd_1
XPHY_EDGE_ROW_100_3_Left_399 vssd1 vssd1 vccd1 vccd1 sky130_fd_sc_hd__decap_3
XPHY_EDGE_ROW_48_3_Left_347 vssd1 vssd1 vccd1 vccd1 sky130_fd_sc_hd__decap_3
XFILLER_147_609 vssd1 vssd1 vccd1 vccd1 sky130_fd_sc_hd__decap_6
XFILLER_128_889 vssd1 vssd1 vccd1 vccd1 sky130_fd_sc_hd__decap_8
XTAP_TAPCELL_ROW_70_1_730 vssd1 vccd1 sky130_fd_sc_hd__tapvpwrvgnd_1
XFILLER_151_881 vccd1 vssd1 vccd1 vssd1 sky130_ef_sc_hd__decap_12
XFILLER_150_391 vccd1 vssd1 vccd1 vssd1 sky130_ef_sc_hd__decap_12
XPHY_EDGE_ROW_94_3_Left_393 vssd1 vssd1 vccd1 vccd1 sky130_fd_sc_hd__decap_3
XFILLER_80_879 vccd1 vssd1 vccd1 vssd1 sky130_ef_sc_hd__decap_12
XFILLER_146_697 vssd1 vssd1 vccd1 vccd1 sky130_fd_sc_hd__decap_3
Xoutput220 output220/A vssd1 vssd1 vccd1 vccd1 io_west_out[26] sky130_fd_sc_hd__buf_2
XFILLER_119_889 vccd1 vssd1 vccd1 vssd1 sky130_ef_sc_hd__decap_12
Xoutput231 output231/A vssd1 vssd1 vccd1 vccd1 io_west_out[9] sky130_fd_sc_hd__buf_2
XTAP_TAPCELL_ROW_3_655 vssd1 vccd1 sky130_fd_sc_hd__tapvpwrvgnd_1
XPHY_EDGE_ROW_95_1_Right_534 vssd1 vssd1 vccd1 vccd1 sky130_fd_sc_hd__decap_3
XFILLER_23_20 vssd1 vssd1 vccd1 vccd1 sky130_fd_sc_hd__decap_8
XANTENNA_cell1_config_data_in cell1/config_data_in vssd1 vssd1 vccd1 vccd1 sky130_fd_sc_hd__diode_2
XFILLER_151_188 vssd1 vssd1 vccd1 vccd1 sky130_fd_sc_hd__decap_8
XANTENNA_input55_A io_north_in[6] vssd1 vssd1 vccd1 vccd1 sky130_fd_sc_hd__diode_2
XFILLER_2_121 vccd1 vssd1 vccd1 vssd1 sky130_ef_sc_hd__decap_12
XFILLER_2_165 vccd1 vssd1 vccd1 vssd1 sky130_ef_sc_hd__decap_12
XANTENNA_cell3_le_nrst input117/X vssd1 vssd1 vccd1 vccd1 sky130_fd_sc_hd__diode_2
XFILLER_0_57 vccd1 vssd1 vccd1 vssd1 sky130_ef_sc_hd__decap_12
XFILLER_147_417 vccd1 vssd1 vccd1 vssd1 sky130_ef_sc_hd__decap_12
XPHY_EDGE_ROW_14_1_Left_165 vssd1 vssd1 vccd1 vccd1 sky130_fd_sc_hd__decap_3
XTAP_TAPCELL_ROW_0_603 vssd1 vccd1 sky130_fd_sc_hd__tapvpwrvgnd_1
XPHY_EDGE_ROW_139_1_Left_290 vssd1 vssd1 vccd1 vccd1 sky130_fd_sc_hd__decap_3
XTAP_TAPCELL_ROW_0_614 vssd1 vccd1 sky130_fd_sc_hd__tapvpwrvgnd_1
XFILLER_146_483 vssd1 vssd1 vccd1 vccd1 sky130_fd_sc_hd__decap_8
XFILLER_146_461 vssd1 vssd1 vccd1 vccd1 sky130_fd_sc_hd__decap_8
XFILLER_60_29 vssd1 vssd1 vccd1 vccd1 sky130_fd_sc_hd__fill_1
XANTENNA_input2_X input2/X vssd1 vssd1 vccd1 vccd1 sky130_fd_sc_hd__diode_2
XFILLER_69_27 vssd1 vssd1 vccd1 vccd1 sky130_fd_sc_hd__decap_3
XFILLER_0_614 vssd1 vssd1 vccd1 vccd1 sky130_fd_sc_hd__fill_2
XFILLER_0_636 vssd1 vssd1 vccd1 vccd1 sky130_fd_sc_hd__fill_2
XTAP_TAPCELL_ROW_108_1_749 vssd1 vccd1 sky130_fd_sc_hd__tapvpwrvgnd_1
XPHY_EDGE_ROW_96_1_Right_535 vssd1 vssd1 vccd1 vccd1 sky130_fd_sc_hd__decap_3
XFILLER_3_441 vssd1 vssd1 vccd1 vccd1 sky130_fd_sc_hd__decap_6
XFILLER_3_485 vccd1 vssd1 vccd1 vssd1 sky130_ef_sc_hd__decap_12
XPHY_EDGE_ROW_52_3_Right_58 vssd1 vssd1 vccd1 vccd1 sky130_fd_sc_hd__decap_3
XFILLER_148_737 vccd1 vssd1 vccd1 vssd1 sky130_ef_sc_hd__decap_12
XFILLER_147_225 vccd1 vssd1 vccd1 vssd1 sky130_ef_sc_hd__decap_12
XPHY_EDGE_ROW_125_3_Left_424 vssd1 vssd1 vccd1 vccd1 sky130_fd_sc_hd__decap_3
XFILLER_4_249 vssd1 vssd1 vccd1 vccd1 sky130_fd_sc_hd__decap_3
XPHY_EDGE_ROW_57_3_Left_356 vssd1 vssd1 vccd1 vccd1 sky130_fd_sc_hd__decap_3
XTAP_TAPCELL_ROW_10_1_700 vssd1 vccd1 sky130_fd_sc_hd__tapvpwrvgnd_1
XFILLER_0_477 vccd1 vssd1 vccd1 vssd1 sky130_ef_sc_hd__decap_12
XANTENNA_input18_A io_east_in[25] vssd1 vssd1 vccd1 vccd1 sky130_fd_sc_hd__diode_2
XFILLER_17_879 vccd1 vssd1 vccd1 vssd1 sky130_ef_sc_hd__decap_12
XPHY_EDGE_ROW_97_1_Right_536 vssd1 vssd1 vccd1 vccd1 sky130_fd_sc_hd__decap_3
XFILLER_3_293 vccd1 vssd1 vccd1 vssd1 sky130_ef_sc_hd__decap_12
XFILLER_13_3 vccd1 vssd1 vccd1 vssd1 sky130_ef_sc_hd__decap_12
XFILLER_148_501 vccd1 vssd1 vccd1 vssd1 sky130_ef_sc_hd__decap_12
XFILLER_148_589 vccd1 vssd1 vccd1 vssd1 sky130_ef_sc_hd__decap_12
XFILLER_148_545 vccd1 vssd1 vccd1 vssd1 sky130_ef_sc_hd__decap_12
XFILLER_150_209 vccd1 vssd1 vccd1 vssd1 sky130_ef_sc_hd__decap_12
XFILLER_82_27 vssd1 vssd1 vccd1 vccd1 sky130_fd_sc_hd__fill_1
XFILLER_1_753 vccd1 vssd1 vccd1 vssd1 sky130_ef_sc_hd__decap_12
XFILLER_1_797 vccd1 vssd1 vccd1 vssd1 sky130_ef_sc_hd__decap_12
XPHY_EDGE_ROW_21_1_Right_460 vssd1 vssd1 vccd1 vccd1 sky130_fd_sc_hd__decap_3
XPHY_EDGE_ROW_98_1_Right_537 vssd1 vssd1 vccd1 vccd1 sky130_fd_sc_hd__decap_3
XPHY_EDGE_ROW_23_1_Left_174 vssd1 vssd1 vccd1 vccd1 sky130_fd_sc_hd__decap_3
XFILLER_149_865 vccd1 vssd1 vccd1 vssd1 sky130_ef_sc_hd__decap_12
XFILLER_149_821 vccd1 vssd1 vccd1 vssd1 sky130_ef_sc_hd__decap_12
XTAP_TAPCELL_ROW_118_1_754 vssd1 vccd1 sky130_fd_sc_hd__tapvpwrvgnd_1
XFILLER_77_27 vssd1 vssd1 vccd1 vccd1 sky130_fd_sc_hd__decap_3
XFILLER_93_15 vccd1 vssd1 vccd1 vssd1 sky130_ef_sc_hd__decap_12
XPHY_EDGE_ROW_60_1_Right_499 vssd1 vssd1 vccd1 vccd1 sky130_fd_sc_hd__decap_3
XANTENNA_input85_A io_south_in[8] vssd1 vssd1 vccd1 vccd1 sky130_fd_sc_hd__diode_2
XFILLER_3_57 vccd1 vssd1 vccd1 vssd1 sky130_ef_sc_hd__decap_12
XFILLER_1_561 vccd1 vssd1 vccd1 vssd1 sky130_ef_sc_hd__decap_12
XFILLER_6_889 vccd1 vssd1 vccd1 vssd1 sky130_ef_sc_hd__decap_12
XPHY_EDGE_ROW_61_3_Right_67 vssd1 vssd1 vccd1 vccd1 sky130_fd_sc_hd__decap_3
XPHY_EDGE_ROW_134_3_Left_433 vssd1 vssd1 vccd1 vccd1 sky130_fd_sc_hd__decap_3
XFILLER_92_877 vccd1 vssd1 vccd1 vssd1 sky130_ef_sc_hd__decap_12
XFILLER_146_813 vccd1 vssd1 vccd1 vssd1 sky130_ef_sc_hd__decap_12
XFILLER_80_3 vccd1 vssd1 vccd1 vssd1 sky130_ef_sc_hd__decap_12
XPHY_EDGE_ROW_22_1_Right_461 vssd1 vssd1 vccd1 vccd1 sky130_fd_sc_hd__decap_3
XPHY_EDGE_ROW_99_1_Right_538 vssd1 vssd1 vccd1 vccd1 sky130_fd_sc_hd__decap_3
XFILLER_47_19 vssd1 vssd1 vccd1 vccd1 sky130_fd_sc_hd__decap_8
XFILLER_83_877 vccd1 vssd1 vccd1 vssd1 sky130_ef_sc_hd__decap_12
XPHY_EDGE_ROW_66_3_Left_365 vssd1 vssd1 vccd1 vccd1 sky130_fd_sc_hd__decap_3
XFILLER_149_673 vccd1 vssd1 vccd1 vssd1 sky130_ef_sc_hd__decap_12
XTAP_TAPCELL_ROW_147_807 vssd1 vccd1 sky130_fd_sc_hd__tapvpwrvgnd_1
XFILLER_151_359 vssd1 vssd1 vccd1 vccd1 sky130_fd_sc_hd__fill_1
XFILLER_151_315 vssd1 vssd1 vccd1 vccd1 sky130_fd_sc_hd__fill_1
XTAP_TAPCELL_ROW_132_3_959 vssd1 vccd1 sky130_fd_sc_hd__tapvpwrvgnd_1
XFILLER_151_893 vssd1 vssd1 vccd1 vccd1 sky130_fd_sc_hd__decap_3
XFILLER_1_391 vssd1 vssd1 vccd1 vccd1 sky130_fd_sc_hd__fill_1
XFILLER_2_881 vccd1 vssd1 vccd1 vssd1 sky130_ef_sc_hd__decap_12
XFILLER_65_877 vccd1 vssd1 vccd1 vssd1 sky130_ef_sc_hd__decap_12
XPHY_EDGE_ROW_151_Left_302 vssd1 vssd1 vccd1 vccd1 sky130_fd_sc_hd__decap_3
XPHY_EDGE_ROW_23_1_Right_462 vssd1 vssd1 vccd1 vccd1 sky130_fd_sc_hd__decap_3
Xoutput221 output221/A vssd1 vssd1 vccd1 vccd1 io_west_out[27] sky130_fd_sc_hd__buf_2
Xoutput210 output210/A vssd1 vssd1 vccd1 vccd1 io_west_out[17] sky130_fd_sc_hd__buf_2
XFILLER_58_29 vssd1 vssd1 vccd1 vccd1 sky130_fd_sc_hd__fill_1
XTAP_TAPCELL_ROW_3_656 vssd1 vccd1 sky130_fd_sc_hd__tapvpwrvgnd_1
XFILLER_56_877 vccd1 vssd1 vccd1 vssd1 sky130_ef_sc_hd__decap_12
XPHY_EDGE_ROW_100_1_Left_251 vssd1 vssd1 vccd1 vccd1 sky130_fd_sc_hd__decap_3
XFILLER_12_903 vssd1 vssd1 vccd1 vccd1 sky130_fd_sc_hd__decap_4
XANTENNA_input48_A io_north_in[27] vssd1 vssd1 vccd1 vccd1 sky130_fd_sc_hd__diode_2
XFILLER_2_133 vssd1 vssd1 vccd1 vccd1 sky130_fd_sc_hd__decap_6
XFILLER_2_177 vccd1 vssd1 vccd1 vssd1 sky130_ef_sc_hd__decap_12
XFILLER_0_69 vccd1 vssd1 vccd1 vssd1 sky130_ef_sc_hd__decap_12
XPHY_EDGE_ROW_32_1_Left_183 vssd1 vssd1 vccd1 vccd1 sky130_fd_sc_hd__decap_3
XFILLER_47_877 vccd1 vssd1 vccd1 vssd1 sky130_ef_sc_hd__decap_12
XFILLER_147_429 vccd1 vssd1 vccd1 vssd1 sky130_ef_sc_hd__decap_12
XTAP_TAPCELL_ROW_0_604 vssd1 vccd1 sky130_fd_sc_hd__tapvpwrvgnd_1
XTAP_TAPCELL_ROW_0_615 vssd1 vccd1 sky130_fd_sc_hd__tapvpwrvgnd_1
XFILLER_38_877 vccd1 vssd1 vccd1 vssd1 sky130_ef_sc_hd__decap_12
XPHY_EDGE_ROW_24_1_Right_463 vssd1 vssd1 vccd1 vccd1 sky130_fd_sc_hd__decap_3
XFILLER_60_19 vssd1 vssd1 vccd1 vccd1 sky130_fd_sc_hd__decap_8
XFILLER_146_495 vssd1 vssd1 vccd1 vccd1 sky130_fd_sc_hd__decap_8
XANTENNA_input102_A io_west_in[25] vssd1 vssd1 vccd1 vccd1 sky130_fd_sc_hd__diode_2
XFILLER_29_877 vccd1 vssd1 vccd1 vssd1 sky130_ef_sc_hd__decap_12
XPHY_EDGE_ROW_70_3_Right_76 vssd1 vssd1 vccd1 vccd1 sky130_fd_sc_hd__decap_3
XPHY_EDGE_ROW_29_3_Left_328 vssd1 vssd1 vccd1 vccd1 sky130_fd_sc_hd__decap_3
XPHY_EDGE_ROW_143_3_Left_442 vssd1 vssd1 vccd1 vccd1 sky130_fd_sc_hd__decap_3
XFILLER_3_497 vssd1 vssd1 vccd1 vccd1 sky130_fd_sc_hd__decap_6
XFILLER_148_749 vssd1 vssd1 vccd1 vccd1 sky130_fd_sc_hd__decap_6
XFILLER_147_237 vccd1 vssd1 vccd1 vssd1 sky130_ef_sc_hd__decap_12
XFILLER_55_19 vssd1 vssd1 vccd1 vccd1 sky130_fd_sc_hd__decap_8
XTAP_TAPCELL_ROW_142_3_964 vssd1 vccd1 sky130_fd_sc_hd__tapvpwrvgnd_1
XPHY_EDGE_ROW_25_1_Right_464 vssd1 vssd1 vccd1 vccd1 sky130_fd_sc_hd__decap_3
XFILLER_146_281 vssd1 vssd1 vccd1 vccd1 sky130_fd_sc_hd__fill_1
XFILLER_96_15 vccd1 vssd1 vccd1 vssd1 sky130_ef_sc_hd__decap_12
XFILLER_0_412 vssd1 vssd1 vccd1 vccd1 sky130_fd_sc_hd__decap_8
XPHY_EDGE_ROW_9_3_Right_15 vssd1 vssd1 vccd1 vccd1 sky130_fd_sc_hd__decap_3
XFILLER_29_20 vssd1 vssd1 vccd1 vccd1 sky130_fd_sc_hd__decap_8
XFILLER_0_434 vssd1 vssd1 vccd1 vccd1 sky130_fd_sc_hd__fill_1
XFILLER_0_489 vccd1 vssd1 vccd1 vssd1 sky130_ef_sc_hd__decap_12
XPHY_EDGE_ROW_114_3_Right_120 vssd1 vssd1 vccd1 vccd1 sky130_fd_sc_hd__decap_3
XFILLER_3_261 vccd1 vssd1 vccd1 vssd1 sky130_ef_sc_hd__decap_12
XFILLER_148_557 vccd1 vssd1 vccd1 vssd1 sky130_ef_sc_hd__decap_12
XFILLER_148_513 vccd1 vssd1 vccd1 vssd1 sky130_ef_sc_hd__decap_12
XFILLER_100_877 vccd1 vssd1 vccd1 vssd1 sky130_ef_sc_hd__decap_12
XFILLER_66_29 vssd1 vssd1 vccd1 vccd1 sky130_fd_sc_hd__fill_1
XPHY_EDGE_ROW_26_1_Right_465 vssd1 vssd1 vccd1 vccd1 sky130_fd_sc_hd__decap_3
XFILLER_150_755 vssd1 vssd1 vccd1 vccd1 sky130_fd_sc_hd__fill_1
XFILLER_0_231 vssd1 vssd1 vccd1 vccd1 sky130_fd_sc_hd__fill_1
Xinput110 io_west_in[5] vssd1 vssd1 vccd1 vccd1 input110/X sky130_fd_sc_hd__clkbuf_1
XPHY_EDGE_ROW_41_1_Left_192 vssd1 vssd1 vccd1 vccd1 sky130_fd_sc_hd__decap_3
XFILLER_1_721 vssd1 vssd1 vccd1 vccd1 sky130_fd_sc_hd__decap_6
XFILLER_1_765 vccd1 vssd1 vccd1 vssd1 sky130_ef_sc_hd__decap_12
XFILLER_0_286 vssd1 vssd1 vccd1 vccd1 sky130_fd_sc_hd__fill_2
XANTENNA_input30_A io_east_in[9] vssd1 vssd1 vccd1 vccd1 sky130_fd_sc_hd__diode_2
XPHY_EDGE_ROW_115_3_Right_121 vssd1 vssd1 vccd1 vccd1 sky130_fd_sc_hd__decap_3
XFILLER_114_903 vssd1 vssd1 vccd1 vccd1 sky130_fd_sc_hd__fill_1
XPHY_EDGE_ROW_33_3_Right_39 vssd1 vssd1 vccd1 vccd1 sky130_fd_sc_hd__decap_3
XPHY_EDGE_ROW_106_3_Left_405 vssd1 vssd1 vccd1 vccd1 sky130_fd_sc_hd__decap_3
XFILLER_51_901 vssd1 vssd1 vccd1 vccd1 sky130_fd_sc_hd__decap_6
XFILLER_149_877 vccd1 vssd1 vccd1 vssd1 sky130_ef_sc_hd__decap_12
XFILLER_149_833 vssd1 vssd1 vccd1 vccd1 sky130_fd_sc_hd__decap_6
XFILLER_148_365 vccd1 vssd1 vccd1 vssd1 sky130_ef_sc_hd__decap_12
XFILLER_148_321 vccd1 vssd1 vccd1 vssd1 sky130_ef_sc_hd__decap_12
XFILLER_93_27 vssd1 vssd1 vccd1 vccd1 sky130_fd_sc_hd__decap_3
XPHY_EDGE_ROW_38_3_Left_337 vssd1 vssd1 vccd1 vccd1 sky130_fd_sc_hd__decap_3
XFILLER_42_901 vssd1 vssd1 vccd1 vccd1 sky130_fd_sc_hd__fill_1
XPHY_EDGE_ROW_27_1_Right_466 vssd1 vssd1 vccd1 vccd1 sky130_fd_sc_hd__decap_3
XFILLER_10_897 vssd1 vssd1 vccd1 vccd1 sky130_fd_sc_hd__decap_3
XANTENNA_input78_A io_south_in[29] vssd1 vssd1 vccd1 vccd1 sky130_fd_sc_hd__diode_2
XFILLER_3_69 vccd1 vssd1 vccd1 vssd1 sky130_ef_sc_hd__decap_12
XFILLER_1_573 vccd1 vssd1 vccd1 vssd1 sky130_ef_sc_hd__decap_12
XFILLER_92_889 vccd1 vssd1 vccd1 vssd1 sky130_ef_sc_hd__decap_12
XPHY_EDGE_ROW_84_3_Left_383 vssd1 vssd1 vccd1 vccd1 sky130_fd_sc_hd__decap_3
XFILLER_33_901 vssd1 vssd1 vccd1 vccd1 sky130_fd_sc_hd__fill_2
XFILLER_146_825 vccd1 vssd1 vccd1 vssd1 sky130_ef_sc_hd__decap_12
XPHY_EDGE_ROW_116_3_Right_122 vssd1 vssd1 vccd1 vccd1 sky130_fd_sc_hd__decap_3
XTAP_TAPCELL_ROW_106_1_748 vssd1 vccd1 sky130_fd_sc_hd__tapvpwrvgnd_1
XFILLER_146_869 vccd1 vssd1 vccd1 vssd1 sky130_ef_sc_hd__decap_12
XFILLER_103_15 vccd1 vssd1 vccd1 vssd1 sky130_ef_sc_hd__decap_12
XFILLER_149_641 vccd1 vssd1 vccd1 vssd1 sky130_ef_sc_hd__decap_12
XFILLER_83_889 vccd1 vssd1 vccd1 vssd1 sky130_ef_sc_hd__decap_12
XFILLER_63_19 vssd1 vssd1 vccd1 vccd1 sky130_fd_sc_hd__decap_8
XFILLER_24_901 vssd1 vssd1 vccd1 vccd1 sky130_fd_sc_hd__fill_1
XFILLER_149_685 vccd1 vssd1 vccd1 vssd1 sky130_ef_sc_hd__decap_12
XFILLER_151_327 vssd1 vssd1 vccd1 vccd1 sky130_fd_sc_hd__decap_8
XFILLER_148_195 vssd1 vssd1 vccd1 vccd1 sky130_fd_sc_hd__fill_1
XTAP_TAPCELL_ROW_147_808 vssd1 vccd1 sky130_fd_sc_hd__tapvpwrvgnd_1
XFILLER_37_20 vssd1 vssd1 vccd1 vccd1 sky130_fd_sc_hd__decap_8
XPHY_EDGE_ROW_146_Right_5 vssd1 vssd1 vccd1 vccd1 sky130_fd_sc_hd__decap_3
XPHY_EDGE_ROW_28_1_Right_467 vssd1 vssd1 vccd1 vccd1 sky130_fd_sc_hd__decap_3
XFILLER_2_893 vccd1 vssd1 vccd1 vssd1 sky130_ef_sc_hd__decap_12
XTAP_TAPCELL_ROW_68_3_927 vssd1 vccd1 sky130_fd_sc_hd__tapvpwrvgnd_1
XPHY_EDGE_ROW_129_1_Left_280 vssd1 vssd1 vccd1 vccd1 sky130_fd_sc_hd__decap_3
XFILLER_65_889 vssd1 vssd1 vccd1 vccd1 sky130_fd_sc_hd__decap_8
XPHY_EDGE_ROW_117_3_Right_123 vssd1 vssd1 vccd1 vccd1 sky130_fd_sc_hd__decap_3
Xoutput200 output200/A vssd1 vssd1 vccd1 vccd1 io_south_out[6] sky130_fd_sc_hd__buf_2
Xoutput222 output222/A vssd1 vssd1 vccd1 vccd1 io_west_out[28] sky130_fd_sc_hd__buf_2
Xoutput211 output211/A vssd1 vssd1 vccd1 vccd1 io_west_out[18] sky130_fd_sc_hd__buf_2
XFILLER_0_819 vssd1 vssd1 vccd1 vccd1 sky130_fd_sc_hd__fill_1
XFILLER_74_29 vssd1 vssd1 vccd1 vccd1 sky130_fd_sc_hd__fill_1
XTAP_TAPCELL_ROW_3_657 vssd1 vccd1 sky130_fd_sc_hd__tapvpwrvgnd_1
XFILLER_56_889 vccd1 vssd1 vccd1 vssd1 sky130_ef_sc_hd__decap_12
XFILLER_99_15 vccd1 vssd1 vccd1 vssd1 sky130_ef_sc_hd__decap_12
XFILLER_3_3 vccd1 vssd1 vccd1 vssd1 sky130_ef_sc_hd__decap_12
XFILLER_0_15 vccd1 vssd1 vccd1 vssd1 sky130_ef_sc_hd__decap_12
XFILLER_2_189 vssd1 vssd1 vccd1 vccd1 sky130_fd_sc_hd__decap_6
XPHY_EDGE_ROW_42_3_Right_48 vssd1 vssd1 vccd1 vccd1 sky130_fd_sc_hd__decap_3
XFILLER_47_889 vccd1 vssd1 vccd1 vssd1 sky130_ef_sc_hd__decap_12
XPHY_EDGE_ROW_115_3_Left_414 vssd1 vssd1 vccd1 vccd1 sky130_fd_sc_hd__decap_3
XFILLER_151_691 vssd1 vssd1 vccd1 vccd1 sky130_fd_sc_hd__decap_3
XPHY_EDGE_ROW_29_1_Right_468 vssd1 vssd1 vccd1 vccd1 sky130_fd_sc_hd__decap_3
XFILLER_36_3 vccd1 vssd1 vccd1 vssd1 sky130_ef_sc_hd__decap_12
XTAP_TAPCELL_ROW_0_605 vssd1 vccd1 sky130_fd_sc_hd__tapvpwrvgnd_1
XTAP_TAPCELL_ROW_0_616 vssd1 vccd1 sky130_fd_sc_hd__tapvpwrvgnd_1
XFILLER_38_889 vccd1 vssd1 vccd1 vssd1 sky130_ef_sc_hd__decap_12
XPHY_EDGE_ROW_47_3_Left_346 vssd1 vssd1 vccd1 vccd1 sky130_fd_sc_hd__decap_3
XPHY_EDGE_ROW_118_3_Right_124 vssd1 vssd1 vccd1 vccd1 sky130_fd_sc_hd__decap_3
XFILLER_130_897 vssd1 vssd1 vccd1 vccd1 sky130_fd_sc_hd__decap_3
XFILLER_85_28 vssd1 vssd1 vccd1 vccd1 sky130_fd_sc_hd__fill_2
XFILLER_29_889 vccd1 vssd1 vccd1 vssd1 sky130_ef_sc_hd__decap_12
XTAP_TAPCELL_ROW_116_1_753 vssd1 vccd1 sky130_fd_sc_hd__tapvpwrvgnd_1
XPHY_EDGE_ROW_93_3_Left_392 vssd1 vssd1 vccd1 vccd1 sky130_fd_sc_hd__decap_3
XANTENNA_input60_A io_south_in[10] vssd1 vssd1 vccd1 vccd1 sky130_fd_sc_hd__diode_2
XFILLER_147_205 vccd1 vssd1 vccd1 vssd1 sky130_ef_sc_hd__decap_12
XFILLER_144_901 vssd1 vssd1 vccd1 vccd1 sky130_fd_sc_hd__fill_1
XFILLER_147_249 vccd1 vssd1 vccd1 vssd1 sky130_ef_sc_hd__decap_12
XFILLER_111_15 vccd1 vssd1 vccd1 vssd1 sky130_ef_sc_hd__decap_12
XFILLER_135_901 vssd1 vssd1 vccd1 vccd1 sky130_fd_sc_hd__fill_1
XFILLER_147_783 vssd1 vssd1 vccd1 vccd1 sky130_fd_sc_hd__fill_1
XPHY_EDGE_ROW_119_3_Right_125 vssd1 vssd1 vccd1 vccd1 sky130_fd_sc_hd__decap_3
XFILLER_96_27 vssd1 vssd1 vccd1 vccd1 sky130_fd_sc_hd__fill_1
XFILLER_45_20 vssd1 vssd1 vccd1 vccd1 sky130_fd_sc_hd__decap_8
XFILLER_126_901 vssd1 vssd1 vccd1 vccd1 sky130_fd_sc_hd__fill_1
XPHY_EDGE_ROW_13_1_Left_164 vssd1 vssd1 vccd1 vccd1 sky130_fd_sc_hd__decap_3
XFILLER_4_741 vccd1 vssd1 vccd1 vssd1 sky130_ef_sc_hd__decap_12
XFILLER_3_273 vssd1 vssd1 vccd1 vccd1 sky130_fd_sc_hd__decap_6
XFILLER_4_785 vccd1 vssd1 vccd1 vssd1 sky130_ef_sc_hd__decap_12
XFILLER_148_569 vccd1 vssd1 vccd1 vssd1 sky130_ef_sc_hd__decap_12
XFILLER_148_525 vssd1 vssd1 vccd1 vccd1 sky130_fd_sc_hd__decap_6
XTAP_TAPCELL_ROW_130_3_958 vssd1 vccd1 sky130_fd_sc_hd__tapvpwrvgnd_1
XFILLER_117_901 vssd1 vssd1 vccd1 vccd1 sky130_fd_sc_hd__decap_6
XFILLER_106_15 vccd1 vssd1 vccd1 vssd1 sky130_ef_sc_hd__decap_12
XFILLER_100_889 vccd1 vssd1 vccd1 vssd1 sky130_ef_sc_hd__decap_12
XFILLER_82_29 vssd1 vssd1 vccd1 vccd1 sky130_fd_sc_hd__fill_1
XFILLER_147_55 vssd1 vssd1 vccd1 vccd1 sky130_fd_sc_hd__fill_1
XFILLER_108_901 vssd1 vssd1 vccd1 vccd1 sky130_fd_sc_hd__fill_1
XPHY_EDGE_ROW_51_3_Right_57 vssd1 vssd1 vccd1 vccd1 sky130_fd_sc_hd__decap_3
XFILLER_150_701 vccd1 vssd1 vccd1 vssd1 sky130_ef_sc_hd__decap_12
XFILLER_103_3 vccd1 vssd1 vccd1 vssd1 sky130_ef_sc_hd__decap_12
Xinput100 io_west_in[23] vssd1 vssd1 vccd1 vccd1 input100/X sky130_fd_sc_hd__clkbuf_1
XFILLER_0_265 vssd1 vssd1 vccd1 vccd1 sky130_fd_sc_hd__fill_2
XFILLER_0_243 vssd1 vssd1 vccd1 vccd1 sky130_fd_sc_hd__decap_8
Xinput111 io_west_in[6] vssd1 vssd1 vccd1 vccd1 input111/X sky130_fd_sc_hd__buf_1
XFILLER_1_777 vssd1 vssd1 vccd1 vccd1 sky130_fd_sc_hd__decap_6
XPHY_EDGE_ROW_124_3_Left_423 vssd1 vssd1 vccd1 vccd1 sky130_fd_sc_hd__decap_3
XANTENNA_input23_A io_east_in[2] vssd1 vssd1 vccd1 vccd1 sky130_fd_sc_hd__diode_2
XANTENNA_cell2_nrst input118/X vssd1 vssd1 vccd1 vccd1 sky130_fd_sc_hd__diode_2
XFILLER_9_877 vccd1 vssd1 vccd1 vssd1 sky130_ef_sc_hd__decap_12
XPHY_EDGE_ROW_56_3_Left_355 vssd1 vssd1 vccd1 vccd1 sky130_fd_sc_hd__decap_3
XFILLER_149_889 vssd1 vssd1 vccd1 vccd1 sky130_fd_sc_hd__decap_6
XFILLER_148_377 vccd1 vssd1 vccd1 vssd1 sky130_ef_sc_hd__decap_12
XFILLER_148_333 vccd1 vssd1 vccd1 vssd1 sky130_ef_sc_hd__decap_12
XFILLER_150_531 vssd1 vssd1 vccd1 vccd1 sky130_fd_sc_hd__fill_1
XFILLER_3_15 vccd1 vssd1 vccd1 vssd1 sky130_ef_sc_hd__decap_12
XFILLER_1_541 vccd1 vssd1 vccd1 vssd1 sky130_ef_sc_hd__decap_12
XFILLER_1_585 vccd1 vssd1 vccd1 vssd1 sky130_ef_sc_hd__decap_12
XFILLER_146_837 vssd1 vssd1 vccd1 vccd1 sky130_fd_sc_hd__decap_3
XFILLER_66_3 vccd1 vssd1 vccd1 vssd1 sky130_ef_sc_hd__decap_12
XFILLER_103_27 vssd1 vssd1 vccd1 vccd1 sky130_fd_sc_hd__decap_3
XFILLER_149_653 vccd1 vssd1 vccd1 vssd1 sky130_ef_sc_hd__decap_12
XFILLER_148_141 vccd1 vssd1 vccd1 vssd1 sky130_ef_sc_hd__decap_12
XTAP_TAPCELL_ROW_18_3_902 vssd1 vccd1 sky130_fd_sc_hd__tapvpwrvgnd_1
XFILLER_149_697 vccd1 vssd1 vccd1 vssd1 sky130_ef_sc_hd__decap_12
XFILLER_151_306 vssd1 vssd1 vccd1 vccd1 sky130_fd_sc_hd__fill_2
XFILLER_3_839 vssd1 vssd1 vccd1 vccd1 sky130_fd_sc_hd__fill_1
XTAP_TAPCELL_ROW_147_809 vssd1 vccd1 sky130_fd_sc_hd__tapvpwrvgnd_1
XPHY_EDGE_ROW_22_1_Left_173 vssd1 vssd1 vccd1 vccd1 sky130_fd_sc_hd__decap_3
XTAP_TAPCELL_ROW_140_3_963 vssd1 vccd1 sky130_fd_sc_hd__tapvpwrvgnd_1
XANTENNA_input90_A io_west_in[12] vssd1 vssd1 vccd1 vccd1 sky130_fd_sc_hd__diode_2
XFILLER_45_8 vccd1 vssd1 vccd1 vssd1 sky130_ef_sc_hd__decap_12
XFILLER_2_861 vssd1 vssd1 vccd1 vccd1 sky130_fd_sc_hd__decap_6
XFILLER_1_393 vccd1 vssd1 vccd1 vssd1 sky130_ef_sc_hd__decap_12
XFILLER_146_645 vccd1 vssd1 vccd1 vssd1 sky130_ef_sc_hd__decap_12
XFILLER_146_601 vccd1 vssd1 vccd1 vssd1 sky130_ef_sc_hd__decap_12
Xoutput223 output223/A vssd1 vssd1 vccd1 vccd1 io_west_out[29] sky130_fd_sc_hd__buf_2
Xoutput212 output212/A vssd1 vssd1 vccd1 vccd1 io_west_out[19] sky130_fd_sc_hd__buf_2
XPHY_EDGE_ROW_98_1_Left_249 vssd1 vssd1 vccd1 vccd1 sky130_fd_sc_hd__decap_3
Xoutput201 output201/A vssd1 vssd1 vccd1 vccd1 io_south_out[7] sky130_fd_sc_hd__buf_2
XTAP_TAPCELL_ROW_3_658 vssd1 vccd1 sky130_fd_sc_hd__tapvpwrvgnd_1
XPHY_EDGE_ROW_19_3_Left_318 vssd1 vssd1 vccd1 vccd1 sky130_fd_sc_hd__decap_3
XPHY_EDGE_ROW_60_3_Right_66 vssd1 vssd1 vccd1 vccd1 sky130_fd_sc_hd__decap_3
XFILLER_149_461 vccd1 vssd1 vccd1 vssd1 sky130_ef_sc_hd__decap_12
XFILLER_99_27 vssd1 vssd1 vccd1 vccd1 sky130_fd_sc_hd__decap_3
XFILLER_90_29 vssd1 vssd1 vccd1 vccd1 sky130_fd_sc_hd__fill_1
XPHY_EDGE_ROW_133_3_Left_432 vssd1 vssd1 vccd1 vccd1 sky130_fd_sc_hd__decap_3
XFILLER_151_147 vssd1 vssd1 vccd1 vccd1 sky130_fd_sc_hd__fill_1
XFILLER_0_27 vssd1 vssd1 vccd1 vccd1 sky130_fd_sc_hd__fill_1
XPHY_EDGE_ROW_65_3_Left_364 vssd1 vssd1 vccd1 vccd1 sky130_fd_sc_hd__decap_3
XTAP_TAPCELL_ROW_0_606 vssd1 vccd1 sky130_fd_sc_hd__tapvpwrvgnd_1
XTAP_TAPCELL_ROW_0_617 vssd1 vccd1 sky130_fd_sc_hd__tapvpwrvgnd_1