* NGSPICE file created from fpgacell.ext - technology: sky130A

* Black-box entry subcircuit for sky130_fd_sc_hd__fill_1 abstract view
.subckt sky130_fd_sc_hd__fill_1 VGND VNB VPB VPWR
.ends

* Black-box entry subcircuit for sky130_fd_sc_hd__decap_3 abstract view
.subckt sky130_fd_sc_hd__decap_3 VGND VNB VPB VPWR
.ends

* Black-box entry subcircuit for sky130_fd_sc_hd__nand2_1 abstract view
.subckt sky130_fd_sc_hd__nand2_1 A B VGND VNB VPB VPWR Y
.ends

* Black-box entry subcircuit for sky130_fd_sc_hd__o21a_1 abstract view
.subckt sky130_fd_sc_hd__o21a_1 A1 A2 B1 VGND VNB VPB VPWR X
.ends

* Black-box entry subcircuit for sky130_fd_sc_hd__dfstp_1 abstract view
.subckt sky130_fd_sc_hd__dfstp_1 CLK D SET_B VGND VNB VPB VPWR Q
.ends

* Black-box entry subcircuit for sky130_fd_sc_hd__decap_8 abstract view
.subckt sky130_fd_sc_hd__decap_8 VGND VNB VPB VPWR
.ends

* Black-box entry subcircuit for sky130_fd_sc_hd__tapvpwrvgnd_1 abstract view
.subckt sky130_fd_sc_hd__tapvpwrvgnd_1 VGND VPWR
.ends

* Black-box entry subcircuit for sky130_fd_sc_hd__fill_2 abstract view
.subckt sky130_fd_sc_hd__fill_2 VGND VNB VPB VPWR
.ends

* Black-box entry subcircuit for sky130_fd_sc_hd__or4_1 abstract view
.subckt sky130_fd_sc_hd__or4_1 A B C D VGND VNB VPB VPWR X
.ends

* Black-box entry subcircuit for sky130_fd_sc_hd__mux2_1 abstract view
.subckt sky130_fd_sc_hd__mux2_1 A0 A1 S VGND VNB VPB VPWR X
.ends

* Black-box entry subcircuit for sky130_fd_sc_hd__clkbuf_2 abstract view
.subckt sky130_fd_sc_hd__clkbuf_2 A VGND VNB VPB VPWR X
.ends

* Black-box entry subcircuit for sky130_fd_sc_hd__inv_2 abstract view
.subckt sky130_fd_sc_hd__inv_2 A VGND VNB VPB VPWR Y
.ends

* Black-box entry subcircuit for sky130_fd_sc_hd__o31a_1 abstract view
.subckt sky130_fd_sc_hd__o31a_1 A1 A2 A3 B1 VGND VNB VPB VPWR X
.ends

* Black-box entry subcircuit for sky130_fd_sc_hd__buf_2 abstract view
.subckt sky130_fd_sc_hd__buf_2 A VGND VNB VPB VPWR X
.ends

* Black-box entry subcircuit for sky130_fd_sc_hd__nor2_1 abstract view
.subckt sky130_fd_sc_hd__nor2_1 A B VGND VNB VPB VPWR Y
.ends

* Black-box entry subcircuit for sky130_fd_sc_hd__mux4_1 abstract view
.subckt sky130_fd_sc_hd__mux4_1 A0 A1 A2 A3 S0 S1 VGND VNB VPB VPWR X
.ends

* Black-box entry subcircuit for sky130_fd_sc_hd__a41o_1 abstract view
.subckt sky130_fd_sc_hd__a41o_1 A1 A2 A3 A4 B1 VGND VNB VPB VPWR X
.ends

* Black-box entry subcircuit for sky130_fd_sc_hd__and2b_1 abstract view
.subckt sky130_fd_sc_hd__and2b_1 A_N B VGND VNB VPB VPWR X
.ends

* Black-box entry subcircuit for sky130_fd_sc_hd__decap_6 abstract view
.subckt sky130_fd_sc_hd__decap_6 VGND VNB VPB VPWR
.ends

* Black-box entry subcircuit for sky130_fd_sc_hd__decap_4 abstract view
.subckt sky130_fd_sc_hd__decap_4 VGND VNB VPB VPWR
.ends

* Black-box entry subcircuit for sky130_fd_sc_hd__a2bb2o_1 abstract view
.subckt sky130_fd_sc_hd__a2bb2o_1 A1_N A2_N B1 B2 VGND VNB VPB VPWR X
.ends

* Black-box entry subcircuit for sky130_fd_sc_hd__o21ai_1 abstract view
.subckt sky130_fd_sc_hd__o21ai_1 A1 A2 B1 VGND VNB VPB VPWR Y
.ends

* Black-box entry subcircuit for sky130_fd_sc_hd__dlygate4sd3_1 abstract view
.subckt sky130_fd_sc_hd__dlygate4sd3_1 A VGND VNB VPB VPWR X
.ends

* Black-box entry subcircuit for sky130_fd_sc_hd__or4bb_1 abstract view
.subckt sky130_fd_sc_hd__or4bb_1 A B C_N D_N VGND VNB VPB VPWR X
.ends

* Black-box entry subcircuit for sky130_fd_sc_hd__diode_2 abstract view
.subckt sky130_fd_sc_hd__diode_2 DIODE VGND VNB VPB VPWR
.ends

* Black-box entry subcircuit for sky130_fd_sc_hd__o22ai_1 abstract view
.subckt sky130_fd_sc_hd__o22ai_1 A1 A2 B1 B2 VGND VNB VPB VPWR Y
.ends

* Black-box entry subcircuit for sky130_fd_sc_hd__o311a_1 abstract view
.subckt sky130_fd_sc_hd__o311a_1 A1 A2 A3 B1 C1 VGND VNB VPB VPWR X
.ends

* Black-box entry subcircuit for sky130_fd_sc_hd__dfrtp_1 abstract view
.subckt sky130_fd_sc_hd__dfrtp_1 CLK D RESET_B VGND VNB VPB VPWR Q
.ends

* Black-box entry subcircuit for sky130_fd_sc_hd__a31oi_1 abstract view
.subckt sky130_fd_sc_hd__a31oi_1 A1 A2 A3 B1 VGND VNB VPB VPWR Y
.ends

* Black-box entry subcircuit for sky130_fd_sc_hd__o221ai_4 abstract view
.subckt sky130_fd_sc_hd__o221ai_4 A1 A2 B1 B2 C1 VGND VNB VPB VPWR Y
.ends

* Black-box entry subcircuit for sky130_fd_sc_hd__a21o_1 abstract view
.subckt sky130_fd_sc_hd__a21o_1 A1 A2 B1 VGND VNB VPB VPWR X
.ends

* Black-box entry subcircuit for sky130_fd_sc_hd__o22a_1 abstract view
.subckt sky130_fd_sc_hd__o22a_1 A1 A2 B1 B2 VGND VNB VPB VPWR X
.ends

* Black-box entry subcircuit for sky130_fd_sc_hd__dfstp_2 abstract view
.subckt sky130_fd_sc_hd__dfstp_2 CLK D SET_B VGND VNB VPB VPWR Q
.ends

* Black-box entry subcircuit for sky130_fd_sc_hd__or3_4 abstract view
.subckt sky130_fd_sc_hd__or3_4 A B C VGND VNB VPB VPWR X
.ends

* Black-box entry subcircuit for sky130_fd_sc_hd__dlymetal6s2s_1 abstract view
.subckt sky130_fd_sc_hd__dlymetal6s2s_1 A VGND VNB VPB VPWR X
.ends

* Black-box entry subcircuit for sky130_ef_sc_hd__decap_12 abstract view
.subckt sky130_ef_sc_hd__decap_12 VPWR VGND VPB VNB
.ends

* Black-box entry subcircuit for sky130_fd_sc_hd__and2_2 abstract view
.subckt sky130_fd_sc_hd__and2_2 A B VGND VNB VPB VPWR X
.ends

* Black-box entry subcircuit for sky130_fd_sc_hd__o311ai_4 abstract view
.subckt sky130_fd_sc_hd__o311ai_4 A1 A2 A3 B1 C1 VGND VNB VPB VPWR Y
.ends

* Black-box entry subcircuit for sky130_fd_sc_hd__a21bo_2 abstract view
.subckt sky130_fd_sc_hd__a21bo_2 A1 A2 B1_N VGND VNB VPB VPWR X
.ends

* Black-box entry subcircuit for sky130_fd_sc_hd__o211a_1 abstract view
.subckt sky130_fd_sc_hd__o211a_1 A1 A2 B1 C1 VGND VNB VPB VPWR X
.ends

* Black-box entry subcircuit for sky130_fd_sc_hd__or3b_2 abstract view
.subckt sky130_fd_sc_hd__or3b_2 A B C_N VGND VNB VPB VPWR X
.ends

* Black-box entry subcircuit for sky130_fd_sc_hd__nand4_1 abstract view
.subckt sky130_fd_sc_hd__nand4_1 A B C D VGND VNB VPB VPWR Y
.ends

* Black-box entry subcircuit for sky130_fd_sc_hd__a21boi_1 abstract view
.subckt sky130_fd_sc_hd__a21boi_1 A1 A2 B1_N VGND VNB VPB VPWR Y
.ends

* Black-box entry subcircuit for sky130_fd_sc_hd__a21bo_1 abstract view
.subckt sky130_fd_sc_hd__a21bo_1 A1 A2 B1_N VGND VNB VPB VPWR X
.ends

* Black-box entry subcircuit for sky130_fd_sc_hd__a2bb2o_2 abstract view
.subckt sky130_fd_sc_hd__a2bb2o_2 A1_N A2_N B1 B2 VGND VNB VPB VPWR X
.ends

* Black-box entry subcircuit for sky130_fd_sc_hd__nand2_2 abstract view
.subckt sky130_fd_sc_hd__nand2_2 A B VGND VNB VPB VPWR Y
.ends

* Black-box entry subcircuit for sky130_fd_sc_hd__nand2b_1 abstract view
.subckt sky130_fd_sc_hd__nand2b_1 A_N B VGND VNB VPB VPWR Y
.ends

* Black-box entry subcircuit for sky130_fd_sc_hd__buf_1 abstract view
.subckt sky130_fd_sc_hd__buf_1 A VGND VNB VPB VPWR X
.ends

* Black-box entry subcircuit for sky130_fd_sc_hd__o221a_1 abstract view
.subckt sky130_fd_sc_hd__o221a_1 A1 A2 B1 B2 C1 VGND VNB VPB VPWR X
.ends

* Black-box entry subcircuit for sky130_fd_sc_hd__a221o_1 abstract view
.subckt sky130_fd_sc_hd__a221o_1 A1 A2 B1 B2 C1 VGND VNB VPB VPWR X
.ends

* Black-box entry subcircuit for sky130_fd_sc_hd__a311oi_1 abstract view
.subckt sky130_fd_sc_hd__a311oi_1 A1 A2 A3 B1 C1 VGND VNB VPB VPWR Y
.ends

* Black-box entry subcircuit for sky130_fd_sc_hd__a21oi_1 abstract view
.subckt sky130_fd_sc_hd__a21oi_1 A1 A2 B1 VGND VNB VPB VPWR Y
.ends

* Black-box entry subcircuit for sky130_fd_sc_hd__xnor2_1 abstract view
.subckt sky130_fd_sc_hd__xnor2_1 A B VGND VNB VPB VPWR Y
.ends

* Black-box entry subcircuit for sky130_fd_sc_hd__a22o_1 abstract view
.subckt sky130_fd_sc_hd__a22o_1 A1 A2 B1 B2 VGND VNB VPB VPWR X
.ends

* Black-box entry subcircuit for sky130_fd_sc_hd__a211o_1 abstract view
.subckt sky130_fd_sc_hd__a211o_1 A1 A2 B1 C1 VGND VNB VPB VPWR X
.ends

* Black-box entry subcircuit for sky130_fd_sc_hd__a31oi_4 abstract view
.subckt sky130_fd_sc_hd__a31oi_4 A1 A2 A3 B1 VGND VNB VPB VPWR Y
.ends

* Black-box entry subcircuit for sky130_fd_sc_hd__o2111a_1 abstract view
.subckt sky130_fd_sc_hd__o2111a_1 A1 A2 B1 C1 D1 VGND VNB VPB VPWR X
.ends

* Black-box entry subcircuit for sky130_fd_sc_hd__o2111ai_1 abstract view
.subckt sky130_fd_sc_hd__o2111ai_1 A1 A2 B1 C1 D1 VGND VNB VPB VPWR Y
.ends

* Black-box entry subcircuit for sky130_fd_sc_hd__and4b_1 abstract view
.subckt sky130_fd_sc_hd__and4b_1 A_N B C D VGND VNB VPB VPWR X
.ends

* Black-box entry subcircuit for sky130_fd_sc_hd__or2_1 abstract view
.subckt sky130_fd_sc_hd__or2_1 A B VGND VNB VPB VPWR X
.ends

* Black-box entry subcircuit for sky130_fd_sc_hd__or3_1 abstract view
.subckt sky130_fd_sc_hd__or3_1 A B C VGND VNB VPB VPWR X
.ends

* Black-box entry subcircuit for sky130_fd_sc_hd__xor2_2 abstract view
.subckt sky130_fd_sc_hd__xor2_2 A B VGND VNB VPB VPWR X
.ends

* Black-box entry subcircuit for sky130_fd_sc_hd__o211ai_1 abstract view
.subckt sky130_fd_sc_hd__o211ai_1 A1 A2 B1 C1 VGND VNB VPB VPWR Y
.ends

* Black-box entry subcircuit for sky130_fd_sc_hd__a31o_1 abstract view
.subckt sky130_fd_sc_hd__a31o_1 A1 A2 A3 B1 VGND VNB VPB VPWR X
.ends

* Black-box entry subcircuit for sky130_fd_sc_hd__clkbuf_8 abstract view
.subckt sky130_fd_sc_hd__clkbuf_8 A VGND VNB VPB VPWR X
.ends

* Black-box entry subcircuit for sky130_fd_sc_hd__and3_1 abstract view
.subckt sky130_fd_sc_hd__and3_1 A B C VGND VNB VPB VPWR X
.ends

* Black-box entry subcircuit for sky130_fd_sc_hd__clkinvlp_4 abstract view
.subckt sky130_fd_sc_hd__clkinvlp_4 A VGND VNB VPB VPWR Y
.ends

* Black-box entry subcircuit for sky130_fd_sc_hd__nand3_1 abstract view
.subckt sky130_fd_sc_hd__nand3_1 A B C VGND VNB VPB VPWR Y
.ends

* Black-box entry subcircuit for sky130_fd_sc_hd__a21oi_2 abstract view
.subckt sky130_fd_sc_hd__a21oi_2 A1 A2 B1 VGND VNB VPB VPWR Y
.ends

* Black-box entry subcircuit for sky130_fd_sc_hd__dfrtp_2 abstract view
.subckt sky130_fd_sc_hd__dfrtp_2 CLK D RESET_B VGND VNB VPB VPWR Q
.ends

* Black-box entry subcircuit for sky130_fd_sc_hd__clkbuf_4 abstract view
.subckt sky130_fd_sc_hd__clkbuf_4 A VGND VNB VPB VPWR X
.ends

* Black-box entry subcircuit for sky130_fd_sc_hd__and2_1 abstract view
.subckt sky130_fd_sc_hd__and2_1 A B VGND VNB VPB VPWR X
.ends

* Black-box entry subcircuit for sky130_fd_sc_hd__or4b_1 abstract view
.subckt sky130_fd_sc_hd__or4b_1 A B C D_N VGND VNB VPB VPWR X
.ends

* Black-box entry subcircuit for sky130_fd_sc_hd__o211a_2 abstract view
.subckt sky130_fd_sc_hd__o211a_2 A1 A2 B1 C1 VGND VNB VPB VPWR X
.ends

* Black-box entry subcircuit for sky130_fd_sc_hd__inv_8 abstract view
.subckt sky130_fd_sc_hd__inv_8 A VGND VNB VPB VPWR Y
.ends

* Black-box entry subcircuit for sky130_fd_sc_hd__mux4_2 abstract view
.subckt sky130_fd_sc_hd__mux4_2 A0 A1 A2 A3 S0 S1 VGND VNB VPB VPWR X
.ends

* Black-box entry subcircuit for sky130_fd_sc_hd__o221ai_1 abstract view
.subckt sky130_fd_sc_hd__o221ai_1 A1 A2 B1 B2 C1 VGND VNB VPB VPWR Y
.ends

* Black-box entry subcircuit for sky130_fd_sc_hd__o21ba_1 abstract view
.subckt sky130_fd_sc_hd__o21ba_1 A1 A2 B1_N VGND VNB VPB VPWR X
.ends

* Black-box entry subcircuit for sky130_fd_sc_hd__o21bai_1 abstract view
.subckt sky130_fd_sc_hd__o21bai_1 A1 A2 B1_N VGND VNB VPB VPWR Y
.ends

* Black-box entry subcircuit for sky130_fd_sc_hd__a32o_1 abstract view
.subckt sky130_fd_sc_hd__a32o_1 A1 A2 A3 B1 B2 VGND VNB VPB VPWR X
.ends

* Black-box entry subcircuit for sky130_fd_sc_hd__or3b_1 abstract view
.subckt sky130_fd_sc_hd__or3b_1 A B C_N VGND VNB VPB VPWR X
.ends

* Black-box entry subcircuit for sky130_fd_sc_hd__inv_12 abstract view
.subckt sky130_fd_sc_hd__inv_12 A VGND VNB VPB VPWR Y
.ends

* Black-box entry subcircuit for sky130_fd_sc_hd__clkbuf_16 abstract view
.subckt sky130_fd_sc_hd__clkbuf_16 A VGND VNB VPB VPWR X
.ends

* Black-box entry subcircuit for sky130_fd_sc_hd__a311o_1 abstract view
.subckt sky130_fd_sc_hd__a311o_1 A1 A2 A3 B1 C1 VGND VNB VPB VPWR X
.ends

* Black-box entry subcircuit for sky130_fd_sc_hd__bufinv_16 abstract view
.subckt sky130_fd_sc_hd__bufinv_16 A VGND VNB VPB VPWR Y
.ends

* Black-box entry subcircuit for sky130_fd_sc_hd__o32a_1 abstract view
.subckt sky130_fd_sc_hd__o32a_1 A1 A2 A3 B1 B2 VGND VNB VPB VPWR X
.ends

* Black-box entry subcircuit for sky130_fd_sc_hd__inv_6 abstract view
.subckt sky130_fd_sc_hd__inv_6 A VGND VNB VPB VPWR Y
.ends

* Black-box entry subcircuit for sky130_fd_sc_hd__a221o_2 abstract view
.subckt sky130_fd_sc_hd__a221o_2 A1 A2 B1 B2 C1 VGND VNB VPB VPWR X
.ends

* Black-box entry subcircuit for sky130_fd_sc_hd__a22o_2 abstract view
.subckt sky130_fd_sc_hd__a22o_2 A1 A2 B1 B2 VGND VNB VPB VPWR X
.ends

* Black-box entry subcircuit for sky130_fd_sc_hd__clkinv_8 abstract view
.subckt sky130_fd_sc_hd__clkinv_8 A VGND VNB VPB VPWR Y
.ends

* Black-box entry subcircuit for sky130_fd_sc_hd__o31ai_1 abstract view
.subckt sky130_fd_sc_hd__o31ai_1 A1 A2 A3 B1 VGND VNB VPB VPWR Y
.ends

* Black-box entry subcircuit for sky130_fd_sc_hd__nor2_2 abstract view
.subckt sky130_fd_sc_hd__nor2_2 A B VGND VNB VPB VPWR Y
.ends

* Black-box entry subcircuit for sky130_fd_sc_hd__a211oi_1 abstract view
.subckt sky130_fd_sc_hd__a211oi_1 A1 A2 B1 C1 VGND VNB VPB VPWR Y
.ends

* Black-box entry subcircuit for sky130_fd_sc_hd__and4_1 abstract view
.subckt sky130_fd_sc_hd__and4_1 A B C D VGND VNB VPB VPWR X
.ends

* Black-box entry subcircuit for sky130_fd_sc_hd__a21bo_4 abstract view
.subckt sky130_fd_sc_hd__a21bo_4 A1 A2 B1_N VGND VNB VPB VPWR X
.ends

* Black-box entry subcircuit for sky130_fd_sc_hd__and4bb_1 abstract view
.subckt sky130_fd_sc_hd__and4bb_1 A_N B_N C D VGND VNB VPB VPWR X
.ends

* Black-box entry subcircuit for sky130_fd_sc_hd__clkinv_4 abstract view
.subckt sky130_fd_sc_hd__clkinv_4 A VGND VNB VPB VPWR Y
.ends

* Black-box entry subcircuit for sky130_fd_sc_hd__clkinv_2 abstract view
.subckt sky130_fd_sc_hd__clkinv_2 A VGND VNB VPB VPWR Y
.ends

* Black-box entry subcircuit for sky130_fd_sc_hd__nand3_4 abstract view
.subckt sky130_fd_sc_hd__nand3_4 A B C VGND VNB VPB VPWR Y
.ends

* Black-box entry subcircuit for sky130_fd_sc_hd__o221a_4 abstract view
.subckt sky130_fd_sc_hd__o221a_4 A1 A2 B1 B2 C1 VGND VNB VPB VPWR X
.ends

* Black-box entry subcircuit for sky130_fd_sc_hd__o2bb2a_1 abstract view
.subckt sky130_fd_sc_hd__o2bb2a_1 A1_N A2_N B1 B2 VGND VNB VPB VPWR X
.ends

* Black-box entry subcircuit for sky130_fd_sc_hd__a31o_2 abstract view
.subckt sky130_fd_sc_hd__a31o_2 A1 A2 A3 B1 VGND VNB VPB VPWR X
.ends

* Black-box entry subcircuit for sky130_fd_sc_hd__clkbuf_1 abstract view
.subckt sky130_fd_sc_hd__clkbuf_1 A VGND VNB VPB VPWR X
.ends

* Black-box entry subcircuit for sky130_fd_sc_hd__and2b_2 abstract view
.subckt sky130_fd_sc_hd__and2b_2 A_N B VGND VNB VPB VPWR X
.ends

* Black-box entry subcircuit for sky130_fd_sc_hd__a221oi_1 abstract view
.subckt sky130_fd_sc_hd__a221oi_1 A1 A2 B1 B2 C1 VGND VNB VPB VPWR Y
.ends

* Black-box entry subcircuit for sky130_fd_sc_hd__mux2_2 abstract view
.subckt sky130_fd_sc_hd__mux2_2 A0 A1 S VGND VNB VPB VPWR X
.ends

* Black-box entry subcircuit for sky130_fd_sc_hd__o22ai_4 abstract view
.subckt sky130_fd_sc_hd__o22ai_4 A1 A2 B1 B2 VGND VNB VPB VPWR Y
.ends

* Black-box entry subcircuit for sky130_fd_sc_hd__a21boi_2 abstract view
.subckt sky130_fd_sc_hd__a21boi_2 A1 A2 B1_N VGND VNB VPB VPWR Y
.ends

* Black-box entry subcircuit for sky130_fd_sc_hd__a22oi_1 abstract view
.subckt sky130_fd_sc_hd__a22oi_1 A1 A2 B1 B2 VGND VNB VPB VPWR Y
.ends

* Black-box entry subcircuit for sky130_fd_sc_hd__a2111o_1 abstract view
.subckt sky130_fd_sc_hd__a2111o_1 A1 A2 B1 C1 D1 VGND VNB VPB VPWR X
.ends

* Black-box entry subcircuit for sky130_fd_sc_hd__nor4_1 abstract view
.subckt sky130_fd_sc_hd__nor4_1 A B C D VGND VNB VPB VPWR Y
.ends

* Black-box entry subcircuit for sky130_fd_sc_hd__or2_4 abstract view
.subckt sky130_fd_sc_hd__or2_4 A B VGND VNB VPB VPWR X
.ends

* Black-box entry subcircuit for sky130_fd_sc_hd__or2_2 abstract view
.subckt sky130_fd_sc_hd__or2_2 A B VGND VNB VPB VPWR X
.ends

* Black-box entry subcircuit for sky130_fd_sc_hd__nand2_4 abstract view
.subckt sky130_fd_sc_hd__nand2_4 A B VGND VNB VPB VPWR Y
.ends

* Black-box entry subcircuit for sky130_fd_sc_hd__o32a_2 abstract view
.subckt sky130_fd_sc_hd__o32a_2 A1 A2 A3 B1 B2 VGND VNB VPB VPWR X
.ends

* Black-box entry subcircuit for sky130_fd_sc_hd__buf_4 abstract view
.subckt sky130_fd_sc_hd__buf_4 A VGND VNB VPB VPWR X
.ends

* Black-box entry subcircuit for sky130_fd_sc_hd__o32a_4 abstract view
.subckt sky130_fd_sc_hd__o32a_4 A1 A2 A3 B1 B2 VGND VNB VPB VPWR X
.ends

* Black-box entry subcircuit for sky130_fd_sc_hd__a311oi_2 abstract view
.subckt sky130_fd_sc_hd__a311oi_2 A1 A2 A3 B1 C1 VGND VNB VPB VPWR Y
.ends

* Black-box entry subcircuit for sky130_fd_sc_hd__o41a_1 abstract view
.subckt sky130_fd_sc_hd__o41a_1 A1 A2 A3 A4 B1 VGND VNB VPB VPWR X
.ends

* Black-box entry subcircuit for sky130_fd_sc_hd__a22oi_2 abstract view
.subckt sky130_fd_sc_hd__a22oi_2 A1 A2 B1 B2 VGND VNB VPB VPWR Y
.ends

* Black-box entry subcircuit for sky130_fd_sc_hd__and3b_1 abstract view
.subckt sky130_fd_sc_hd__and3b_1 A_N B C VGND VNB VPB VPWR X
.ends

* Black-box entry subcircuit for sky130_fd_sc_hd__nand3b_1 abstract view
.subckt sky130_fd_sc_hd__nand3b_1 A_N B C VGND VNB VPB VPWR Y
.ends

* Black-box entry subcircuit for sky130_fd_sc_hd__o31ai_4 abstract view
.subckt sky130_fd_sc_hd__o31ai_4 A1 A2 A3 B1 VGND VNB VPB VPWR Y
.ends

.subckt fpgacell CBeast_in[0] CBeast_in[10] CBeast_in[11] CBeast_in[12] CBeast_in[13]
+ CBeast_in[1] CBeast_in[2] CBeast_in[3] CBeast_in[4] CBeast_in[5] CBeast_in[6] CBeast_in[7]
+ CBeast_in[8] CBeast_in[9] CBeast_out[0] CBeast_out[10] CBeast_out[11] CBeast_out[12]
+ CBeast_out[13] CBeast_out[1] CBeast_out[2] CBeast_out[3] CBeast_out[4] CBeast_out[5]
+ CBeast_out[6] CBeast_out[7] CBeast_out[8] CBeast_out[9] CBnorth_in[0] CBnorth_in[10]
+ CBnorth_in[11] CBnorth_in[12] CBnorth_in[13] CBnorth_in[1] CBnorth_in[2] CBnorth_in[3]
+ CBnorth_in[4] CBnorth_in[5] CBnorth_in[6] CBnorth_in[7] CBnorth_in[8] CBnorth_in[9]
+ CBnorth_out[0] CBnorth_out[10] CBnorth_out[11] CBnorth_out[12] CBnorth_out[13] CBnorth_out[1]
+ CBnorth_out[2] CBnorth_out[3] CBnorth_out[4] CBnorth_out[5] CBnorth_out[6] CBnorth_out[7]
+ CBnorth_out[8] CBnorth_out[9] SBsouth_in[0] SBsouth_in[10] SBsouth_in[11] SBsouth_in[12]
+ SBsouth_in[13] SBsouth_in[1] SBsouth_in[2] SBsouth_in[3] SBsouth_in[4] SBsouth_in[5]
+ SBsouth_in[6] SBsouth_in[7] SBsouth_in[8] SBsouth_in[9] SBsouth_out[0] SBsouth_out[10]
+ SBsouth_out[11] SBsouth_out[12] SBsouth_out[13] SBsouth_out[1] SBsouth_out[2] SBsouth_out[3]
+ SBsouth_out[4] SBsouth_out[5] SBsouth_out[6] SBsouth_out[7] SBsouth_out[8] SBsouth_out[9]
+ SBwest_in[0] SBwest_in[10] SBwest_in[11] SBwest_in[12] SBwest_in[13] SBwest_in[1]
+ SBwest_in[2] SBwest_in[3] SBwest_in[4] SBwest_in[5] SBwest_in[6] SBwest_in[7] SBwest_in[8]
+ SBwest_in[9] SBwest_out[0] SBwest_out[10] SBwest_out[11] SBwest_out[12] SBwest_out[13]
+ SBwest_out[1] SBwest_out[2] SBwest_out[3] SBwest_out[4] SBwest_out[5] SBwest_out[6]
+ SBwest_out[7] SBwest_out[8] SBwest_out[9] clk config_data_in config_data_out config_en
+ le_clk le_en le_nrst nrst vccd1 vssd1
XFILLER_54_203 vssd1 vssd1 vccd1 vccd1 sky130_fd_sc_hd__fill_1
XFILLER_39_277 vssd1 vssd1 vccd1 vccd1 sky130_fd_sc_hd__decap_3
X_2037_ CB_1.config_dataA\[1\] CB_1.config_dataA\[3\] vssd1 vssd1 vccd1 vccd1 _0822_
+ sky130_fd_sc_hd__nand2_1
X_2106_ _0879_ _0889_ _0890_ vssd1 vssd1 vccd1 vccd1 _0891_ sky130_fd_sc_hd__o21a_1
X_2939_ clknet_leaf_27_clk _0201_ net209 vssd1 vssd1 vccd1 vccd1 SB0.route_sel\[65\]
+ sky130_fd_sc_hd__dfstp_1
XFILLER_22_188 vssd1 vssd1 vccd1 vccd1 sky130_fd_sc_hd__decap_8
XFILLER_60_239 vssd1 vssd1 vccd1 vccd1 sky130_fd_sc_hd__fill_1
XFILLER_45_203 vssd1 vssd1 vccd1 vccd1 sky130_fd_sc_hd__fill_1
XTAP_TAPCELL_ROW_43_415 vssd1 vccd1 sky130_fd_sc_hd__tapvpwrvgnd_1
XFILLER_13_100 vssd1 vssd1 vccd1 vccd1 sky130_fd_sc_hd__fill_2
XFILLER_26_85 vssd1 vssd1 vccd1 vccd1 sky130_fd_sc_hd__fill_1
XFILLER_3_45 vssd1 vssd1 vccd1 vccd1 sky130_fd_sc_hd__fill_2
X_1606_ CB_0.config_dataA\[17\] CB_0.config_dataA\[16\] CB_0.config_dataA\[19\] CB_0.config_dataA\[18\]
+ vssd1 vssd1 vccd1 vccd1 _0395_ sky130_fd_sc_hd__or4_1
XFILLER_8_170 vssd1 vssd1 vccd1 vccd1 sky130_fd_sc_hd__fill_2
X_2724_ net286 LE_1B.config_data\[5\] net257 vssd1 vssd1 vccd1 vccd1 _0314_ sky130_fd_sc_hd__mux2_1
X_2655_ SB0.route_sel\[109\] SB0.route_sel\[108\] net251 vssd1 vssd1 vccd1 vccd1 _0245_
+ sky130_fd_sc_hd__mux2_1
Xfanout149 CB_0.config_dataB\[17\] vssd1 vssd1 vccd1 vccd1 net149 sky130_fd_sc_hd__clkbuf_2
Xfanout127 _1219_ vssd1 vssd1 vccd1 vccd1 net127 sky130_fd_sc_hd__clkbuf_2
X_1399_ CB_0.config_dataA\[10\] vssd1 vssd1 vccd1 vccd1 _1193_ sky130_fd_sc_hd__inv_2
X_1537_ _1325_ _1326_ _1329_ CB_0.config_dataA\[0\] vssd1 vssd1 vccd1 vccd1 _1331_
+ sky130_fd_sc_hd__o31a_1
Xfanout138 CB_1.config_dataA\[12\] vssd1 vssd1 vccd1 vccd1 net138 sky130_fd_sc_hd__buf_2
X_2586_ SB0.route_sel\[40\] SB0.route_sel\[39\] net231 vssd1 vssd1 vccd1 vccd1 _0176_
+ sky130_fd_sc_hd__mux2_1
X_1468_ SB0.route_sel\[58\] SB0.route_sel\[59\] vssd1 vssd1 vccd1 vccd1 _1262_ sky130_fd_sc_hd__nor2_1
XFILLER_37_84 vssd1 vssd1 vccd1 vccd1 sky130_fd_sc_hd__fill_1
X_2440_ net373 net370 net268 vssd1 vssd1 vccd1 vccd1 _0032_ sky130_fd_sc_hd__mux2_1
X_2371_ _1099_ _1100_ _0428_ vssd1 vssd1 vccd1 vccd1 net97 sky130_fd_sc_hd__o21a_1
X_2707_ CB_1.config_dataA\[9\] net141 net265 vssd1 vssd1 vccd1 vccd1 _0297_ sky130_fd_sc_hd__mux2_1
X_2638_ SB0.route_sel\[92\] SB0.route_sel\[91\] net246 vssd1 vssd1 vccd1 vccd1 _0228_
+ sky130_fd_sc_hd__mux2_1
X_2569_ SB0.route_sel\[23\] SB0.route_sel\[22\] net227 vssd1 vssd1 vccd1 vccd1 _0159_
+ sky130_fd_sc_hd__mux2_1
XTAP_TAPCELL_ROW_2_143 vssd1 vccd1 sky130_fd_sc_hd__tapvpwrvgnd_1
XFILLER_2_154 vssd1 vssd1 vccd1 vccd1 sky130_fd_sc_hd__fill_2
XFILLER_0_57 vssd1 vssd1 vccd1 vccd1 sky130_fd_sc_hd__fill_2
X_1871_ net132 net127 net123 net120 LEI0.config_data\[3\] LEI0.config_data\[4\] vssd1
+ vssd1 vccd1 vccd1 _0658_ sky130_fd_sc_hd__mux4_1
X_1940_ net154 net156 net153 _0492_ _0726_ vssd1 vssd1 vccd1 vccd1 _0727_ sky130_fd_sc_hd__a41o_1
XTAP_TAPCELL_ROW_16_234 vssd1 vccd1 sky130_fd_sc_hd__tapvpwrvgnd_1
X_2423_ LEI0.config_data\[14\] LEI0.config_data\[13\] net267 vssd1 vssd1 vccd1 vccd1
+ _0015_ sky130_fd_sc_hd__mux2_1
X_2285_ _1299_ _1307_ vssd1 vssd1 vccd1 vccd1 _1049_ sky130_fd_sc_hd__nand2_1
X_2354_ SB0.route_sel\[35\] SB0.route_sel\[34\] vssd1 vssd1 vccd1 vccd1 _1089_ sky130_fd_sc_hd__and2b_1
XFILLER_20_242 vssd1 vssd1 vccd1 vccd1 sky130_fd_sc_hd__decap_6
XFILLER_47_139 vssd1 vssd1 vccd1 vccd1 sky130_fd_sc_hd__decap_4
XTAP_TAPCELL_ROW_38_381 vssd1 vccd1 sky130_fd_sc_hd__tapvpwrvgnd_1
XFILLER_28_342 vssd1 vssd1 vccd1 vccd1 sky130_fd_sc_hd__fill_2
XTAP_TAPCELL_ROW_13_215 vssd1 vccd1 sky130_fd_sc_hd__tapvpwrvgnd_1
XFILLER_7_279 vssd1 vssd1 vccd1 vccd1 sky130_fd_sc_hd__fill_1
XTAP_TAPCELL_ROW_21_270 vssd1 vccd1 sky130_fd_sc_hd__tapvpwrvgnd_1
X_2070_ net132 net127 net123 net120 LEI0.config_data\[30\] LEI0.config_data\[31\]
+ vssd1 vssd1 vccd1 vccd1 _0855_ sky130_fd_sc_hd__mux4_1
X_2972_ clknet_leaf_10_clk _0234_ net203 vssd1 vssd1 vccd1 vccd1 SB0.route_sel\[98\]
+ sky130_fd_sc_hd__dfstp_1
XFILLER_34_312 vssd1 vssd1 vccd1 vccd1 sky130_fd_sc_hd__decap_6
X_1785_ _0453_ _0473_ _0517_ _0492_ CB_0.config_dataA\[8\] net166 vssd1 vssd1 vccd1
+ vccd1 _0574_ sky130_fd_sc_hd__mux4_1
X_1923_ net23 net24 net25 net26 net155 net154 vssd1 vssd1 vccd1 vccd1 _0710_ sky130_fd_sc_hd__mux4_1
X_1854_ _0636_ _0637_ _0640_ _0627_ vssd1 vssd1 vccd1 vccd1 _0641_ sky130_fd_sc_hd__o31a_1
X_2406_ SB0.route_sel\[81\] _1174_ _1172_ _1173_ vssd1 vssd1 vccd1 vccd1 _1124_ sky130_fd_sc_hd__a2bb2o_1
X_2268_ _1310_ _1040_ _1314_ vssd1 vssd1 vccd1 vccd1 net81 sky130_fd_sc_hd__o21ai_1
X_2199_ _1218_ _1219_ net123 _1221_ LEI0.config_data\[33\] LEI0.config_data\[34\]
+ vssd1 vssd1 vccd1 vccd1 _0982_ sky130_fd_sc_hd__mux4_1
XFILLER_37_150 vssd1 vssd1 vccd1 vccd1 sky130_fd_sc_hd__decap_3
X_2337_ SB0.route_sel\[57\] SB0.route_sel\[56\] SB0.route_sel\[58\] _1156_ vssd1 vssd1
+ vccd1 vccd1 _1078_ sky130_fd_sc_hd__a2bb2o_1
XTAP_TAPCELL_ROW_27_307 vssd1 vccd1 sky130_fd_sc_hd__tapvpwrvgnd_1
XFILLER_37_194 vssd1 vssd1 vccd1 vccd1 sky130_fd_sc_hd__fill_1
XTAP_TAPCELL_ROW_35_362 vssd1 vccd1 sky130_fd_sc_hd__tapvpwrvgnd_1
Xhold30 LEI0.config_data\[11\] vssd1 vssd1 vccd1 vccd1 net301 sky130_fd_sc_hd__dlygate4sd3_1
Xhold63 LE_0A.config_data\[2\] vssd1 vssd1 vccd1 vccd1 net334 sky130_fd_sc_hd__dlygate4sd3_1
Xhold52 LE_0A.config_data\[11\] vssd1 vssd1 vccd1 vccd1 net323 sky130_fd_sc_hd__dlygate4sd3_1
Xhold74 LE_0A.config_data\[15\] vssd1 vssd1 vccd1 vccd1 net345 sky130_fd_sc_hd__dlygate4sd3_1
Xhold41 LE_0B.config_data\[7\] vssd1 vssd1 vccd1 vccd1 net312 sky130_fd_sc_hd__dlygate4sd3_1
Xhold85 LEI0.config_data\[7\] vssd1 vssd1 vccd1 vccd1 net356 sky130_fd_sc_hd__dlygate4sd3_1
Xhold96 LEI0.config_data\[26\] vssd1 vssd1 vccd1 vccd1 net367 sky130_fd_sc_hd__dlygate4sd3_1
XTAP_TAPCELL_ROW_41_398 vssd1 vccd1 sky130_fd_sc_hd__tapvpwrvgnd_1
XFILLER_6_23 vssd1 vssd1 vccd1 vccd1 sky130_fd_sc_hd__decap_4
X_1570_ CB_0.config_dataA\[19\] CB_0.config_dataA\[18\] CB_0.config_dataA\[17\] CB_0.config_dataA\[16\]
+ vssd1 vssd1 vccd1 vccd1 _0359_ sky130_fd_sc_hd__or4bb_1
XANTENNA_5 LEI0.config_data\[31\] vssd1 vssd1 vccd1 vccd1 sky130_fd_sc_hd__diode_2
XTAP_TAPCELL_ROW_49_454 vssd1 vccd1 sky130_fd_sc_hd__tapvpwrvgnd_1
X_2053_ net4 net5 CB_1.config_dataA\[0\] vssd1 vssd1 vccd1 vccd1 _0838_ sky130_fd_sc_hd__mux2_1
X_2122_ _0906_ _0899_ _0895_ vssd1 vssd1 vccd1 vccd1 _0907_ sky130_fd_sc_hd__mux2_1
XTAP_TAPCELL_ROW_32_343 vssd1 vccd1 sky130_fd_sc_hd__tapvpwrvgnd_1
X_2955_ clknet_leaf_2_clk _0217_ net195 vssd1 vssd1 vccd1 vccd1 SB0.route_sel\[81\]
+ sky130_fd_sc_hd__dfstp_1
X_1906_ net15 net20 net21 net22 net157 CB_0.config_dataB\[9\] vssd1 vssd1 vccd1 vccd1
+ _0693_ sky130_fd_sc_hd__mux4_1
X_1768_ _1192_ net167 vssd1 vssd1 vccd1 vccd1 _0557_ sky130_fd_sc_hd__nor2_1
X_1837_ CB_0.config_dataB\[7\] _0622_ _0623_ _0620_ vssd1 vssd1 vccd1 vccd1 _0624_
+ sky130_fd_sc_hd__o22ai_1
X_2886_ clknet_leaf_29_clk _0148_ net191 vssd1 vssd1 vccd1 vccd1 SB0.route_sel\[12\]
+ sky130_fd_sc_hd__dfstp_1
X_1699_ _0483_ _0486_ _0487_ SB0.route_sel\[89\] SB0.route_sel\[88\] vssd1 vssd1 vccd1
+ vccd1 _0488_ sky130_fd_sc_hd__o311a_1
XFILLER_31_31 vssd1 vssd1 vccd1 vccd1 sky130_fd_sc_hd__decap_4
XFILLER_9_308 vssd1 vssd1 vccd1 vccd1 sky130_fd_sc_hd__fill_1
XFILLER_25_197 vssd1 vssd1 vccd1 vccd1 sky130_fd_sc_hd__decap_4
Xoutput64 net64 vssd1 vssd1 vccd1 vccd1 CBeast_out[10] sky130_fd_sc_hd__buf_2
Xoutput75 net75 vssd1 vssd1 vccd1 vccd1 CBeast_out[8] sky130_fd_sc_hd__buf_2
Xoutput86 net86 vssd1 vssd1 vccd1 vccd1 CBnorth_out[5] sky130_fd_sc_hd__buf_2
Xoutput97 net97 vssd1 vssd1 vccd1 vccd1 SBsouth_out[2] sky130_fd_sc_hd__buf_2
XTAP_TAPCELL_ROW_46_435 vssd1 vccd1 sky130_fd_sc_hd__tapvpwrvgnd_1
XFILLER_31_167 vssd1 vssd1 vccd1 vccd1 sky130_fd_sc_hd__fill_1
XFILLER_31_134 vssd1 vssd1 vccd1 vccd1 sky130_fd_sc_hd__fill_1
XFILLER_16_197 vssd1 vssd1 vccd1 vccd1 sky130_fd_sc_hd__fill_1
X_2671_ CB_0.config_dataA\[13\] CB_0.config_dataA\[12\] net248 vssd1 vssd1 vccd1 vccd1
+ _0261_ sky130_fd_sc_hd__mux2_1
X_2740_ clknet_leaf_16_clk _0002_ net222 vssd1 vssd1 vccd1 vccd1 LEI0.config_data\[1\]
+ sky130_fd_sc_hd__dfrtp_1
X_1622_ SB0.route_sel\[3\] SB0.route_sel\[2\] vssd1 vssd1 vccd1 vccd1 _0411_ sky130_fd_sc_hd__nor2_1
XFILLER_8_363 vssd1 vssd1 vccd1 vccd1 sky130_fd_sc_hd__fill_1
X_1553_ _0338_ _0340_ _0341_ _0329_ vssd1 vssd1 vccd1 vccd1 _0342_ sky130_fd_sc_hd__a31oi_1
X_1484_ net123 _1273_ _1275_ _1276_ _1277_ vssd1 vssd1 vccd1 vccd1 _1278_ sky130_fd_sc_hd__o221ai_4
X_2036_ _0469_ _0791_ _1203_ vssd1 vssd1 vccd1 vccd1 _0821_ sky130_fd_sc_hd__a21o_1
X_2105_ CB_1.config_dataA\[15\] _0887_ _0888_ _0873_ vssd1 vssd1 vccd1 vccd1 _0890_
+ sky130_fd_sc_hd__o22a_1
XFILLER_10_329 vssd1 vssd1 vccd1 vccd1 sky130_fd_sc_hd__decap_4
X_2938_ clknet_leaf_27_clk _0200_ net195 vssd1 vssd1 vccd1 vccd1 SB0.route_sel\[64\]
+ sky130_fd_sc_hd__dfstp_1
X_2869_ clknet_leaf_21_clk _0131_ net215 vssd1 vssd1 vccd1 vccd1 CB_1.config_dataB\[15\]
+ sky130_fd_sc_hd__dfstp_2
XFILLER_9_149 vssd1 vssd1 vccd1 vccd1 sky130_fd_sc_hd__decap_8
XFILLER_3_35 vssd1 vssd1 vccd1 vccd1 sky130_fd_sc_hd__fill_1
XTAP_TAPCELL_ROW_8_182 vssd1 vccd1 sky130_fd_sc_hd__tapvpwrvgnd_1
X_2723_ net310 LE_1B.config_data\[4\] net252 vssd1 vssd1 vccd1 vccd1 _0313_ sky130_fd_sc_hd__mux2_1
X_1536_ _1325_ _1326_ _1329_ vssd1 vssd1 vccd1 vccd1 _1330_ sky130_fd_sc_hd__or3_4
X_1605_ SB0.route_sel\[0\] SB0.route_sel\[1\] vssd1 vssd1 vccd1 vccd1 _0394_ sky130_fd_sc_hd__nand2_1
X_2654_ SB0.route_sel\[108\] SB0.route_sel\[107\] net251 vssd1 vssd1 vccd1 vccd1 _0244_
+ sky130_fd_sc_hd__mux2_1
X_2585_ SB0.route_sel\[39\] SB0.route_sel\[38\] net232 vssd1 vssd1 vccd1 vccd1 _0175_
+ sky130_fd_sc_hd__mux2_1
Xfanout128 net129 vssd1 vssd1 vccd1 vccd1 net128 sky130_fd_sc_hd__clkbuf_2
X_1398_ net166 vssd1 vssd1 vccd1 vccd1 _1192_ sky130_fd_sc_hd__inv_2
Xfanout139 CB_1.config_dataA\[12\] vssd1 vssd1 vccd1 vccd1 net139 sky130_fd_sc_hd__dlymetal6s2s_1
X_1467_ _1256_ _1260_ _1246_ _1250_ vssd1 vssd1 vccd1 vccd1 _1261_ sky130_fd_sc_hd__a2bb2o_1
XFILLER_50_251 vssd1 vssd1 vccd1 vccd1 sky130_fd_sc_hd__fill_1
XFILLER_42_218 vccd1 vssd1 vccd1 vssd1 sky130_ef_sc_hd__decap_12
X_2019_ _0514_ _0803_ vssd1 vssd1 vccd1 vccd1 _0804_ sky130_fd_sc_hd__and2_2
XFILLER_58_362 vssd1 vssd1 vccd1 vccd1 sky130_fd_sc_hd__fill_2
XTAP_TAPCELL_ROW_5_163 vssd1 vccd1 sky130_fd_sc_hd__tapvpwrvgnd_1
X_2370_ _1136_ SB0.route_sel\[18\] SB0.route_sel\[23\] SB0.route_sel\[22\] vssd1 vssd1
+ vccd1 vccd1 _1100_ sky130_fd_sc_hd__o22ai_1
XTAP_TAPCELL_ROW_19_254 vssd1 vccd1 sky130_fd_sc_hd__tapvpwrvgnd_1
X_2706_ net141 CB_1.config_dataA\[7\] net265 vssd1 vssd1 vccd1 vccd1 _0296_ sky130_fd_sc_hd__mux2_1
XFILLER_32_251 vssd1 vssd1 vccd1 vccd1 sky130_fd_sc_hd__fill_1
X_1519_ _1312_ vssd1 vssd1 vccd1 vccd1 _1313_ sky130_fd_sc_hd__inv_2
X_2637_ SB0.route_sel\[91\] SB0.route_sel\[90\] net246 vssd1 vssd1 vccd1 vccd1 _0227_
+ sky130_fd_sc_hd__mux2_1