* NGSPICE file created from fpga.ext - technology: sky130A

* Black-box entry subcircuit for sky130_fd_sc_hd__fill_1 abstract view
.subckt sky130_fd_sc_hd__fill_1 VGND VNB VPB VPWR
.ends

* Black-box entry subcircuit for sky130_ef_sc_hd__decap_12 abstract view
.subckt sky130_ef_sc_hd__decap_12 VPWR VGND VPB VNB
.ends

* Black-box entry subcircuit for sky130_fd_sc_hd__decap_3 abstract view
.subckt sky130_fd_sc_hd__decap_3 VGND VNB VPB VPWR
.ends

* Black-box entry subcircuit for sky130_fd_sc_hd__tapvpwrvgnd_1 abstract view
.subckt sky130_fd_sc_hd__tapvpwrvgnd_1 VGND VPWR
.ends

* Black-box entry subcircuit for sky130_fd_sc_hd__fill_2 abstract view
.subckt sky130_fd_sc_hd__fill_2 VGND VNB VPB VPWR
.ends

* Black-box entry subcircuit for sky130_fd_sc_hd__decap_6 abstract view
.subckt sky130_fd_sc_hd__decap_6 VGND VNB VPB VPWR
.ends

* Black-box entry subcircuit for sky130_fd_sc_hd__decap_8 abstract view
.subckt sky130_fd_sc_hd__decap_8 VGND VNB VPB VPWR
.ends

* Black-box entry subcircuit for sky130_fd_sc_hd__buf_2 abstract view
.subckt sky130_fd_sc_hd__buf_2 A VGND VNB VPB VPWR X
.ends

* Black-box entry subcircuit for sky130_fd_sc_hd__buf_1 abstract view
.subckt sky130_fd_sc_hd__buf_1 A VGND VNB VPB VPWR X
.ends

* Black-box entry subcircuit for sky130_fd_sc_hd__buf_12 abstract view
.subckt sky130_fd_sc_hd__buf_12 A VGND VNB VPB VPWR X
.ends

* Black-box entry subcircuit for sky130_fd_sc_hd__decap_4 abstract view
.subckt sky130_fd_sc_hd__decap_4 VGND VNB VPB VPWR
.ends

* Black-box entry subcircuit for sky130_fd_sc_hd__clkbuf_8 abstract view
.subckt sky130_fd_sc_hd__clkbuf_8 A VGND VNB VPB VPWR X
.ends

* Black-box entry subcircuit for sky130_fd_sc_hd__clkbuf_16 abstract view
.subckt sky130_fd_sc_hd__clkbuf_16 A VGND VNB VPB VPWR X
.ends

* Black-box entry subcircuit for sky130_fd_sc_hd__buf_4 abstract view
.subckt sky130_fd_sc_hd__buf_4 A VGND VNB VPB VPWR X
.ends

* Black-box entry subcircuit for sky130_fd_sc_hd__clkbuf_1 abstract view
.subckt sky130_fd_sc_hd__clkbuf_1 A VGND VNB VPB VPWR X
.ends

* Black-box entry subcircuit for sky130_fd_sc_hd__clkbuf_4 abstract view
.subckt sky130_fd_sc_hd__clkbuf_4 A VGND VNB VPB VPWR X
.ends

* Black-box entry subcircuit for sky130_fd_sc_hd__clkbuf_2 abstract view
.subckt sky130_fd_sc_hd__clkbuf_2 A VGND VNB VPB VPWR X
.ends

* Black-box entry subcircuit for sky130_fd_sc_hd__dlymetal6s2s_1 abstract view
.subckt sky130_fd_sc_hd__dlymetal6s2s_1 A VGND VNB VPB VPWR X
.ends

* Black-box entry subcircuit for fpgacell abstract view
.subckt fpgacell CBeast_in[0] CBeast_in[10] CBeast_in[11] CBeast_in[12] CBeast_in[13]
+ CBeast_in[1] CBeast_in[2] CBeast_in[3] CBeast_in[4] CBeast_in[5] CBeast_in[6] CBeast_in[7]
+ CBeast_in[8] CBeast_in[9] CBeast_out[0] CBeast_out[10] CBeast_out[11] CBeast_out[12]
+ CBeast_out[13] CBeast_out[1] CBeast_out[2] CBeast_out[3] CBeast_out[4] CBeast_out[5]
+ CBeast_out[6] CBeast_out[7] CBeast_out[8] CBeast_out[9] CBnorth_in[0] CBnorth_in[10]
+ CBnorth_in[11] CBnorth_in[12] CBnorth_in[13] CBnorth_in[1] CBnorth_in[2] CBnorth_in[3]
+ CBnorth_in[4] CBnorth_in[5] CBnorth_in[6] CBnorth_in[7] CBnorth_in[8] CBnorth_in[9]
+ CBnorth_out[0] CBnorth_out[10] CBnorth_out[11] CBnorth_out[12] CBnorth_out[13] CBnorth_out[1]
+ CBnorth_out[2] CBnorth_out[3] CBnorth_out[4] CBnorth_out[5] CBnorth_out[6] CBnorth_out[7]
+ CBnorth_out[8] CBnorth_out[9] SBsouth_in[0] SBsouth_in[10] SBsouth_in[11] SBsouth_in[12]
+ SBsouth_in[13] SBsouth_in[1] SBsouth_in[2] SBsouth_in[3] SBsouth_in[4] SBsouth_in[5]
+ SBsouth_in[6] SBsouth_in[7] SBsouth_in[8] SBsouth_in[9] SBsouth_out[0] SBsouth_out[10]
+ SBsouth_out[11] SBsouth_out[12] SBsouth_out[13] SBsouth_out[1] SBsouth_out[2] SBsouth_out[3]
+ SBsouth_out[4] SBsouth_out[5] SBsouth_out[6] SBsouth_out[7] SBsouth_out[8] SBsouth_out[9]
+ SBwest_in[0] SBwest_in[10] SBwest_in[11] SBwest_in[12] SBwest_in[13] SBwest_in[1]
+ SBwest_in[2] SBwest_in[3] SBwest_in[4] SBwest_in[5] SBwest_in[6] SBwest_in[7] SBwest_in[8]
+ SBwest_in[9] SBwest_out[0] SBwest_out[10] SBwest_out[11] SBwest_out[12] SBwest_out[13]
+ SBwest_out[1] SBwest_out[2] SBwest_out[3] SBwest_out[4] SBwest_out[5] SBwest_out[6]
+ SBwest_out[7] SBwest_out[8] SBwest_out[9] clk config_data_in config_data_out config_en
+ le_clk le_en le_nrst nrst vccd1 vssd1
.ends

* Black-box entry subcircuit for sky130_fd_sc_hd__conb_1 abstract view
.subckt sky130_fd_sc_hd__conb_1 VGND VNB VPB VPWR HI LO
.ends

* Black-box entry subcircuit for sky130_fd_sc_hd__diode_2 abstract view
.subckt sky130_fd_sc_hd__diode_2 DIODE VGND VNB VPB VPWR
.ends

.subckt fpga clk config_data_in config_data_out config_en io_east_in[0] io_east_in[10]
+ io_east_in[11] io_east_in[12] io_east_in[13] io_east_in[14] io_east_in[15] io_east_in[16]
+ io_east_in[17] io_east_in[18] io_east_in[19] io_east_in[1] io_east_in[20] io_east_in[21]
+ io_east_in[22] io_east_in[23] io_east_in[24] io_east_in[25] io_east_in[26] io_east_in[27]
+ io_east_in[28] io_east_in[29] io_east_in[2] io_east_in[30] io_east_in[31] io_east_in[3]
+ io_east_in[4] io_east_in[5] io_east_in[6] io_east_in[7] io_east_in[8] io_east_in[9]
+ io_east_out[0] io_east_out[10] io_east_out[11] io_east_out[12] io_east_out[13] io_east_out[14]
+ io_east_out[15] io_east_out[16] io_east_out[17] io_east_out[18] io_east_out[19]
+ io_east_out[1] io_east_out[20] io_east_out[21] io_east_out[22] io_east_out[23] io_east_out[24]
+ io_east_out[25] io_east_out[26] io_east_out[27] io_east_out[28] io_east_out[29]
+ io_east_out[2] io_east_out[30] io_east_out[31] io_east_out[3] io_east_out[4] io_east_out[5]
+ io_east_out[6] io_east_out[7] io_east_out[8] io_east_out[9] io_north_in[0] io_north_in[10]
+ io_north_in[11] io_north_in[12] io_north_in[13] io_north_in[14] io_north_in[15]
+ io_north_in[16] io_north_in[17] io_north_in[18] io_north_in[19] io_north_in[1] io_north_in[20]
+ io_north_in[21] io_north_in[22] io_north_in[23] io_north_in[24] io_north_in[25]
+ io_north_in[26] io_north_in[27] io_north_in[28] io_north_in[29] io_north_in[2] io_north_in[30]
+ io_north_in[31] io_north_in[3] io_north_in[4] io_north_in[5] io_north_in[6] io_north_in[7]
+ io_north_in[8] io_north_in[9] io_north_out[0] io_north_out[10] io_north_out[11]
+ io_north_out[12] io_north_out[13] io_north_out[14] io_north_out[15] io_north_out[16]
+ io_north_out[17] io_north_out[18] io_north_out[19] io_north_out[1] io_north_out[20]
+ io_north_out[21] io_north_out[22] io_north_out[23] io_north_out[24] io_north_out[25]
+ io_north_out[26] io_north_out[27] io_north_out[28] io_north_out[29] io_north_out[2]
+ io_north_out[30] io_north_out[31] io_north_out[3] io_north_out[4] io_north_out[5]
+ io_north_out[6] io_north_out[7] io_north_out[8] io_north_out[9] io_south_in[0] io_south_in[10]
+ io_south_in[11] io_south_in[12] io_south_in[13] io_south_in[14] io_south_in[15]
+ io_south_in[16] io_south_in[17] io_south_in[18] io_south_in[19] io_south_in[1] io_south_in[20]
+ io_south_in[21] io_south_in[22] io_south_in[23] io_south_in[24] io_south_in[25]
+ io_south_in[26] io_south_in[27] io_south_in[28] io_south_in[29] io_south_in[2] io_south_in[30]
+ io_south_in[31] io_south_in[3] io_south_in[4] io_south_in[5] io_south_in[6] io_south_in[7]
+ io_south_in[8] io_south_in[9] io_south_out[0] io_south_out[10] io_south_out[11]
+ io_south_out[12] io_south_out[13] io_south_out[14] io_south_out[15] io_south_out[16]
+ io_south_out[17] io_south_out[18] io_south_out[19] io_south_out[1] io_south_out[20]
+ io_south_out[21] io_south_out[22] io_south_out[23] io_south_out[24] io_south_out[25]
+ io_south_out[26] io_south_out[27] io_south_out[28] io_south_out[29] io_south_out[2]
+ io_south_out[30] io_south_out[31] io_south_out[3] io_south_out[4] io_south_out[5]
+ io_south_out[6] io_south_out[7] io_south_out[8] io_south_out[9] io_west_in[0] io_west_in[10]
+ io_west_in[11] io_west_in[12] io_west_in[13] io_west_in[14] io_west_in[15] io_west_in[16]
+ io_west_in[17] io_west_in[18] io_west_in[19] io_west_in[1] io_west_in[20] io_west_in[21]
+ io_west_in[22] io_west_in[23] io_west_in[24] io_west_in[25] io_west_in[26] io_west_in[27]
+ io_west_in[28] io_west_in[29] io_west_in[2] io_west_in[30] io_west_in[31] io_west_in[3]
+ io_west_in[4] io_west_in[5] io_west_in[6] io_west_in[7] io_west_in[8] io_west_in[9]
+ io_west_out[0] io_west_out[10] io_west_out[11] io_west_out[12] io_west_out[13] io_west_out[14]
+ io_west_out[15] io_west_out[16] io_west_out[17] io_west_out[18] io_west_out[19]
+ io_west_out[1] io_west_out[20] io_west_out[21] io_west_out[22] io_west_out[23] io_west_out[24]
+ io_west_out[25] io_west_out[26] io_west_out[27] io_west_out[28] io_west_out[29]
+ io_west_out[2] io_west_out[30] io_west_out[31] io_west_out[3] io_west_out[4] io_west_out[5]
+ io_west_out[6] io_west_out[7] io_west_out[8] io_west_out[9] le_clk le_en le_nrst
+ nrst vccd1 vssd1
XFILLER_52_29 vssd1 vssd1 vccd1 vccd1 sky130_fd_sc_hd__fill_1
XFILLER_149_897 vccd1 vssd1 vccd1 vssd1 sky130_ef_sc_hd__decap_12
XFILLER_151_517 vccd1 vssd1 vccd1 vssd1 sky130_ef_sc_hd__decap_12
XFILLER_154_333 vssd1 vssd1 vccd1 vccd1 sky130_fd_sc_hd__decap_3
XTAP_TAPCELL_ROW_150_791 vssd1 vccd1 sky130_fd_sc_hd__tapvpwrvgnd_1
XFILLER_150_561 vccd1 vssd1 vccd1 vssd1 sky130_ef_sc_hd__decap_12
XFILLER_154_355 vssd1 vssd1 vccd1 vccd1 sky130_fd_sc_hd__fill_2
XPHY_EDGE_ROW_61_3_Right_66 vssd1 vssd1 vccd1 vccd1 sky130_fd_sc_hd__decap_3
XTAP_TAPCELL_ROW_144_3_965 vssd1 vccd1 sky130_fd_sc_hd__tapvpwrvgnd_1
XPHY_EDGE_ROW_22_1_Right_471 vssd1 vssd1 vccd1 vccd1 sky130_fd_sc_hd__decap_3
XTAP_TAPCELL_ROW_74_1_746 vssd1 vccd1 sky130_fd_sc_hd__tapvpwrvgnd_1
XPHY_EDGE_ROW_99_1_Right_548 vssd1 vssd1 vccd1 vccd1 sky130_fd_sc_hd__decap_3
XFILLER_152_837 vccd1 vssd1 vccd1 vssd1 sky130_ef_sc_hd__decap_12
XFILLER_2_357 vssd1 vssd1 vccd1 vccd1 sky130_fd_sc_hd__decap_6
XFILLER_154_130 vssd1 vssd1 vccd1 vccd1 sky130_fd_sc_hd__decap_8
XPHY_EDGE_ROW_55_3_Left_360 vssd1 vssd1 vccd1 vccd1 sky130_fd_sc_hd__decap_3
XPHY_EDGE_ROW_111_1_Left_265 vssd1 vssd1 vccd1 vccd1 sky130_fd_sc_hd__decap_3
XPHY_EDGE_ROW_59_1_Left_213 vssd1 vssd1 vccd1 vccd1 sky130_fd_sc_hd__decap_3
XPHY_EDGE_ROW_23_1_Right_472 vssd1 vssd1 vccd1 vccd1 sky130_fd_sc_hd__decap_3
Xoutput220 output220/A vssd1 vssd1 vccd1 vccd1 io_west_out[26] sky130_fd_sc_hd__buf_2
XPHY_EDGE_ROW_43_1_Left_197 vssd1 vssd1 vccd1 vccd1 sky130_fd_sc_hd__decap_3
Xoutput231 output231/A vssd1 vssd1 vccd1 vccd1 io_west_out[9] sky130_fd_sc_hd__buf_2
XTAP_TAPCELL_ROW_3_666 vssd1 vccd1 sky130_fd_sc_hd__tapvpwrvgnd_1
XTAP_TAPCELL_ROW_3_677 vssd1 vccd1 sky130_fd_sc_hd__tapvpwrvgnd_1
XFILLER_0_839 vssd1 vssd1 vccd1 vccd1 sky130_fd_sc_hd__fill_1
XFILLER_74_27 vssd1 vssd1 vccd1 vccd1 sky130_fd_sc_hd__fill_1
XTAP_TAPCELL_ROW_152_842 vssd1 vccd1 sky130_fd_sc_hd__tapvpwrvgnd_1
XFILLER_90_26 vssd1 vssd1 vccd1 vccd1 sky130_fd_sc_hd__fill_2
XFILLER_152_601 vccd1 vssd1 vccd1 vssd1 sky130_ef_sc_hd__decap_12
XFILLER_151_111 vssd1 vssd1 vccd1 vccd1 sky130_fd_sc_hd__fill_1
XFILLER_152_645 vccd1 vssd1 vccd1 vssd1 sky130_ef_sc_hd__decap_12
XFILLER_2_121 vccd1 vssd1 vccd1 vssd1 sky130_ef_sc_hd__decap_12
XFILLER_2_165 vccd1 vssd1 vccd1 vssd1 sky130_ef_sc_hd__decap_12
XFILLER_0_57 vccd1 vssd1 vccd1 vssd1 sky130_ef_sc_hd__decap_12
XFILLER_85_905 vssd1 vssd1 vccd1 vccd1 sky130_fd_sc_hd__fill_2
XTAP_TAPCELL_ROW_0_603 vssd1 vccd1 sky130_fd_sc_hd__tapvpwrvgnd_1
XPHY_EDGE_ROW_24_3_Right_29 vssd1 vssd1 vccd1 vccd1 sky130_fd_sc_hd__decap_3
XFILLER_44_19 vssd1 vssd1 vccd1 vccd1 sky130_fd_sc_hd__decap_8
XTAP_TAPCELL_ROW_0_614 vssd1 vccd1 sky130_fd_sc_hd__tapvpwrvgnd_1
XTAP_TAPCELL_ROW_0_625 vssd1 vccd1 sky130_fd_sc_hd__tapvpwrvgnd_1
XPHY_EDGE_ROW_24_1_Right_473 vssd1 vssd1 vccd1 vccd1 sky130_fd_sc_hd__decap_3
XFILLER_60_29 vssd1 vssd1 vccd1 vccd1 sky130_fd_sc_hd__fill_1
XFILLER_5_909 vssd1 vssd1 vccd1 vccd1 sky130_fd_sc_hd__fill_2
XFILLER_0_614 vssd1 vssd1 vccd1 vccd1 sky130_fd_sc_hd__fill_2
XFILLER_0_669 vssd1 vssd1 vccd1 vccd1 sky130_fd_sc_hd__decap_3
XPHY_EDGE_ROW_70_3_Right_75 vssd1 vssd1 vccd1 vccd1 sky130_fd_sc_hd__decap_3
XTAP_TAPCELL_ROW_84_1_751 vssd1 vccd1 sky130_fd_sc_hd__tapvpwrvgnd_1
XFILLER_152_475 vssd1 vssd1 vccd1 vccd1 sky130_fd_sc_hd__fill_1
XTAP_TAPCELL_ROW_14_1_716 vssd1 vccd1 sky130_fd_sc_hd__tapvpwrvgnd_1
XFILLER_3_441 vssd1 vssd1 vccd1 vccd1 sky130_fd_sc_hd__decap_6
XFILLER_3_485 vccd1 vssd1 vccd1 vssd1 sky130_ef_sc_hd__decap_12
XFILLER_67_905 vssd1 vssd1 vccd1 vccd1 sky130_fd_sc_hd__fill_2
XFILLER_98_3 vccd1 vssd1 vccd1 vssd1 sky130_ef_sc_hd__decap_12
XPHY_EDGE_ROW_18_3_Left_323 vssd1 vssd1 vccd1 vccd1 sky130_fd_sc_hd__decap_3
XFILLER_58_905 vssd1 vssd1 vccd1 vccd1 sky130_fd_sc_hd__fill_1
XFILLER_154_729 vssd1 vssd1 vccd1 vccd1 sky130_fd_sc_hd__decap_6
XFILLER_153_217 vssd1 vssd1 vccd1 vccd1 sky130_fd_sc_hd__decap_6
XFILLER_4_249 vssd1 vssd1 vccd1 vccd1 sky130_fd_sc_hd__decap_3
XPHY_EDGE_ROW_25_1_Right_474 vssd1 vssd1 vccd1 vccd1 sky130_fd_sc_hd__decap_3
XPHY_EDGE_ROW_9_3_Right_14 vssd1 vssd1 vccd1 vccd1 sky130_fd_sc_hd__decap_3
XFILLER_152_53 vccd1 vssd1 vccd1 vssd1 sky130_ef_sc_hd__decap_12
XFILLER_0_477 vccd1 vssd1 vccd1 vssd1 sky130_ef_sc_hd__decap_12
XFILLER_152_97 vccd1 vssd1 vccd1 vssd1 sky130_ef_sc_hd__decap_12
XPHY_EDGE_ROW_120_1_Left_274 vssd1 vssd1 vccd1 vccd1 sky130_fd_sc_hd__decap_3
XPHY_EDGE_ROW_68_1_Left_222 vssd1 vssd1 vccd1 vccd1 sky130_fd_sc_hd__decap_3
XFILLER_3_293 vccd1 vssd1 vccd1 vssd1 sky130_ef_sc_hd__decap_12
XFILLER_13_3 vccd1 vssd1 vccd1 vssd1 sky130_ef_sc_hd__decap_12
XFILLER_150_209 vccd1 vssd1 vccd1 vssd1 sky130_ef_sc_hd__decap_12
XPHY_EDGE_ROW_26_1_Right_475 vssd1 vssd1 vccd1 vccd1 sky130_fd_sc_hd__decap_3
XFILLER_154_537 vssd1 vssd1 vccd1 vccd1 sky130_fd_sc_hd__fill_2
XFILLER_1_753 vccd1 vssd1 vccd1 vssd1 sky130_ef_sc_hd__decap_12
XFILLER_0_263 vssd1 vssd1 vccd1 vccd1 sky130_fd_sc_hd__decap_8
XFILLER_1_797 vccd1 vssd1 vccd1 vssd1 sky130_ef_sc_hd__decap_12
XPHY_EDGE_ROW_115_3_Right_120 vssd1 vssd1 vccd1 vccd1 sky130_fd_sc_hd__decap_3
XFILLER_82_6 vccd1 vssd1 vccd1 vssd1 sky130_ef_sc_hd__decap_12
XFILLER_9_897 vccd1 vssd1 vccd1 vssd1 sky130_ef_sc_hd__decap_12
XPHY_EDGE_ROW_33_3_Right_38 vssd1 vssd1 vccd1 vccd1 sky130_fd_sc_hd__decap_3
XFILLER_95_885 vccd1 vssd1 vccd1 vssd1 sky130_ef_sc_hd__decap_12
XFILLER_52_19 vssd1 vssd1 vccd1 vccd1 sky130_fd_sc_hd__decap_8
XFILLER_151_529 vccd1 vssd1 vccd1 vssd1 sky130_ef_sc_hd__decap_12
XFILLER_120_905 vssd1 vssd1 vccd1 vccd1 sky130_fd_sc_hd__fill_1
XTAP_TAPCELL_ROW_24_1_721 vssd1 vccd1 sky130_fd_sc_hd__tapvpwrvgnd_1
XFILLER_86_885 vccd1 vssd1 vccd1 vssd1 sky130_ef_sc_hd__decap_12
XTAP_TAPCELL_ROW_150_792 vssd1 vccd1 sky130_fd_sc_hd__tapvpwrvgnd_1
XPHY_EDGE_ROW_27_1_Right_476 vssd1 vssd1 vccd1 vccd1 sky130_fd_sc_hd__decap_3
XFILLER_10_885 vccd1 vssd1 vccd1 vssd1 sky130_ef_sc_hd__decap_12
XFILLER_150_573 vccd1 vssd1 vccd1 vssd1 sky130_ef_sc_hd__decap_12
XFILLER_3_57 vccd1 vssd1 vccd1 vssd1 sky130_ef_sc_hd__decap_12
XFILLER_1_561 vccd1 vssd1 vccd1 vssd1 sky130_ef_sc_hd__decap_12
XFILLER_77_885 vccd1 vssd1 vccd1 vssd1 sky130_ef_sc_hd__decap_12
XPHY_EDGE_ROW_116_3_Right_121 vssd1 vssd1 vccd1 vccd1 sky130_fd_sc_hd__decap_3
XFILLER_80_3 vccd1 vssd1 vccd1 vssd1 sky130_ef_sc_hd__decap_12
XPHY_EDGE_ROW_27_3_Left_332 vssd1 vssd1 vccd1 vccd1 sky130_fd_sc_hd__decap_3
XFILLER_47_19 vssd1 vssd1 vccd1 vccd1 sky130_fd_sc_hd__decap_8
XFILLER_68_885 vccd1 vssd1 vccd1 vssd1 sky130_ef_sc_hd__decap_12
XFILLER_152_805 vssd1 vssd1 vccd1 vccd1 sky130_fd_sc_hd__decap_6
XFILLER_137_7 vccd1 vssd1 vccd1 vssd1 sky130_ef_sc_hd__decap_12
XPHY_EDGE_ROW_15_1_Left_169 vssd1 vssd1 vccd1 vccd1 sky130_fd_sc_hd__decap_3
XFILLER_152_849 vccd1 vssd1 vccd1 vssd1 sky130_ef_sc_hd__decap_12
XFILLER_151_337 vccd1 vssd1 vccd1 vssd1 sky130_ef_sc_hd__decap_12
XFILLER_88_26 vssd1 vssd1 vccd1 vccd1 sky130_fd_sc_hd__fill_2
XPHY_EDGE_ROW_77_1_Left_231 vssd1 vssd1 vccd1 vccd1 sky130_fd_sc_hd__decap_3
XFILLER_59_885 vccd1 vssd1 vccd1 vssd1 sky130_ef_sc_hd__decap_12
XTAP_TAPCELL_ROW_132_3_959 vssd1 vccd1 sky130_fd_sc_hd__tapvpwrvgnd_1
XFILLER_154_197 vssd1 vssd1 vccd1 vccd1 sky130_fd_sc_hd__decap_6
XFILLER_154_153 vssd1 vssd1 vccd1 vccd1 sky130_fd_sc_hd__fill_1
XPHY_EDGE_ROW_28_1_Right_477 vssd1 vssd1 vccd1 vccd1 sky130_fd_sc_hd__decap_3
XFILLER_52_7 vccd1 vssd1 vccd1 vssd1 sky130_ef_sc_hd__decap_12
XFILLER_1_391 vssd1 vssd1 vccd1 vccd1 sky130_fd_sc_hd__fill_1
XFILLER_2_881 vccd1 vssd1 vccd1 vssd1 sky130_ef_sc_hd__decap_12
XPHY_EDGE_ROW_117_3_Right_122 vssd1 vssd1 vccd1 vccd1 sky130_fd_sc_hd__decap_3
Xoutput221 output221/A vssd1 vssd1 vccd1 vccd1 io_west_out[27] sky130_fd_sc_hd__buf_2
Xoutput210 output210/A vssd1 vssd1 vccd1 vccd1 io_west_out[17] sky130_fd_sc_hd__buf_2
XFILLER_58_29 vssd1 vssd1 vccd1 vccd1 sky130_fd_sc_hd__fill_1
XTAP_TAPCELL_ROW_152_843 vssd1 vccd1 sky130_fd_sc_hd__tapvpwrvgnd_1
XTAP_TAPCELL_ROW_152_832 vssd1 vccd1 sky130_fd_sc_hd__tapvpwrvgnd_1
XTAP_TAPCELL_ROW_3_667 vssd1 vccd1 sky130_fd_sc_hd__tapvpwrvgnd_1
XTAP_TAPCELL_ROW_3_678 vssd1 vccd1 sky130_fd_sc_hd__tapvpwrvgnd_1
XFILLER_152_657 vccd1 vssd1 vccd1 vssd1 sky130_ef_sc_hd__decap_12
XFILLER_152_613 vccd1 vssd1 vccd1 vssd1 sky130_ef_sc_hd__decap_12
XFILLER_128_3 vccd1 vssd1 vccd1 vssd1 sky130_ef_sc_hd__decap_12
XFILLER_151_167 vssd1 vssd1 vccd1 vccd1 sky130_fd_sc_hd__fill_1
XFILLER_2_133 vssd1 vssd1 vccd1 vccd1 sky130_fd_sc_hd__decap_6
XFILLER_2_177 vccd1 vssd1 vccd1 vssd1 sky130_ef_sc_hd__decap_12
XFILLER_0_69 vccd1 vssd1 vccd1 vssd1 sky130_ef_sc_hd__decap_12
XPHY_EDGE_ROW_42_3_Right_47 vssd1 vssd1 vccd1 vccd1 sky130_fd_sc_hd__decap_3
XPHY_EDGE_ROW_29_1_Right_478 vssd1 vssd1 vccd1 vccd1 sky130_fd_sc_hd__decap_3
XFILLER_43_3 vccd1 vssd1 vccd1 vssd1 sky130_ef_sc_hd__decap_12
XTAP_TAPCELL_ROW_0_604 vssd1 vccd1 sky130_fd_sc_hd__tapvpwrvgnd_1
XTAP_TAPCELL_ROW_0_615 vssd1 vccd1 sky130_fd_sc_hd__tapvpwrvgnd_1
XTAP_TAPCELL_ROW_0_626 vssd1 vccd1 sky130_fd_sc_hd__tapvpwrvgnd_1
XFILLER_100_26 vssd1 vssd1 vccd1 vccd1 sky130_fd_sc_hd__fill_2
XFILLER_60_19 vssd1 vssd1 vccd1 vccd1 sky130_fd_sc_hd__decap_8
XPHY_EDGE_ROW_118_3_Right_123 vssd1 vssd1 vccd1 vccd1 sky130_fd_sc_hd__decap_3
XFILLER_130_885 vccd1 vssd1 vccd1 vssd1 sky130_ef_sc_hd__decap_12
XFILLER_91_909 vssd1 vssd1 vccd1 vccd1 sky130_fd_sc_hd__fill_2
XFILLER_152_421 vccd1 vssd1 vccd1 vssd1 sky130_ef_sc_hd__decap_12
XFILLER_3_497 vssd1 vssd1 vccd1 vccd1 sky130_fd_sc_hd__decap_6
XFILLER_121_885 vccd1 vssd1 vccd1 vssd1 sky130_ef_sc_hd__decap_12
XPHY_EDGE_ROW_36_3_Left_341 vssd1 vssd1 vccd1 vccd1 sky130_fd_sc_hd__decap_3
XFILLER_112_885 vccd1 vssd1 vccd1 vssd1 sky130_ef_sc_hd__decap_12
XFILLER_73_909 vssd1 vssd1 vccd1 vccd1 sky130_fd_sc_hd__fill_2
XPHY_EDGE_ROW_24_1_Left_178 vssd1 vssd1 vccd1 vccd1 sky130_fd_sc_hd__decap_3
XTAP_TAPCELL_ROW_142_3_964 vssd1 vccd1 sky130_fd_sc_hd__tapvpwrvgnd_1
XPHY_EDGE_ROW_86_1_Left_240 vssd1 vssd1 vccd1 vccd1 sky130_fd_sc_hd__decap_3
XTAP_TAPCELL_ROW_72_1_745 vssd1 vccd1 sky130_fd_sc_hd__tapvpwrvgnd_1
XFILLER_154_719 vssd1 vssd1 vccd1 vccd1 sky130_fd_sc_hd__fill_2
XPHY_EDGE_ROW_119_3_Right_124 vssd1 vssd1 vccd1 vccd1 sky130_fd_sc_hd__decap_3
XFILLER_96_15 vccd1 vssd1 vccd1 vssd1 sky130_ef_sc_hd__decap_12
XFILLER_152_65 vccd1 vssd1 vccd1 vssd1 sky130_ef_sc_hd__decap_12
XFILLER_103_885 vccd1 vssd1 vccd1 vssd1 sky130_ef_sc_hd__decap_12
XFILLER_0_445 vssd1 vssd1 vccd1 vccd1 sky130_fd_sc_hd__decap_3
XFILLER_0_489 vccd1 vssd1 vccd1 vssd1 sky130_ef_sc_hd__decap_12
XFILLER_153_741 vccd1 vssd1 vccd1 vssd1 sky130_ef_sc_hd__decap_12
XFILLER_77_9 vccd1 vssd1 vccd1 vssd1 sky130_ef_sc_hd__decap_12
XFILLER_153_785 vccd1 vssd1 vccd1 vssd1 sky130_ef_sc_hd__decap_12
XFILLER_152_251 vssd1 vssd1 vccd1 vccd1 sky130_fd_sc_hd__fill_1
XFILLER_3_261 vccd1 vssd1 vccd1 vssd1 sky130_ef_sc_hd__decap_12
XFILLER_55_909 vssd1 vssd1 vccd1 vccd1 sky130_fd_sc_hd__fill_2
XFILLER_66_29 vssd1 vssd1 vccd1 vccd1 sky130_fd_sc_hd__fill_1
XFILLER_46_909 vssd1 vssd1 vccd1 vccd1 sky130_fd_sc_hd__fill_1
XFILLER_154_505 vccd1 vssd1 vccd1 vssd1 sky130_ef_sc_hd__decap_12
XFILLER_0_253 vssd1 vssd1 vccd1 vccd1 sky130_fd_sc_hd__decap_6
XFILLER_0_242 vssd1 vssd1 vccd1 vccd1 sky130_fd_sc_hd__decap_3
Xinput110 io_west_in[5] vssd1 vssd1 vccd1 vccd1 input110/X sky130_fd_sc_hd__buf_1
XFILLER_1_721 vssd1 vssd1 vccd1 vccd1 sky130_fd_sc_hd__decap_6
XFILLER_1_765 vccd1 vssd1 vccd1 vssd1 sky130_ef_sc_hd__decap_12
XPHY_EDGE_ROW_51_3_Right_56 vssd1 vssd1 vccd1 vccd1 sky130_fd_sc_hd__decap_3
XPHY_EDGE_ROW_9_1_Left_163 vssd1 vssd1 vccd1 vccd1 sky130_fd_sc_hd__decap_3
XFILLER_0_297 vssd1 vssd1 vccd1 vccd1 sky130_fd_sc_hd__decap_8
XFILLER_75_6 vccd1 vssd1 vccd1 vssd1 sky130_ef_sc_hd__decap_12
XFILLER_95_897 vssd1 vssd1 vccd1 vccd1 sky130_fd_sc_hd__decap_8
XPHY_EDGE_ROW_79_5_Left_384 vssd1 vssd1 vccd1 vccd1 sky130_fd_sc_hd__decap_3
XFILLER_86_897 vccd1 vssd1 vccd1 vssd1 sky130_ef_sc_hd__decap_12
XFILLER_19_909 vssd1 vssd1 vccd1 vccd1 sky130_fd_sc_hd__fill_2
XTAP_TAPCELL_ROW_150_793 vssd1 vccd1 sky130_fd_sc_hd__tapvpwrvgnd_1
XFILLER_154_313 vssd1 vssd1 vccd1 vccd1 sky130_fd_sc_hd__decap_8
XPHY_EDGE_ROW_49_1_Left_203 vssd1 vssd1 vccd1 vccd1 sky130_fd_sc_hd__decap_3
XFILLER_10_897 vccd1 vssd1 vccd1 vssd1 sky130_ef_sc_hd__decap_12
XPHY_EDGE_ROW_45_3_Left_350 vssd1 vssd1 vccd1 vccd1 sky130_fd_sc_hd__decap_3
XFILLER_150_585 vssd1 vssd1 vccd1 vccd1 sky130_fd_sc_hd__decap_3
XPHY_EDGE_ROW_101_1_Left_255 vssd1 vssd1 vccd1 vccd1 sky130_fd_sc_hd__decap_3
XFILLER_3_69 vccd1 vssd1 vccd1 vssd1 sky130_ef_sc_hd__decap_12
XFILLER_1_573 vccd1 vssd1 vccd1 vssd1 sky130_ef_sc_hd__decap_12
XFILLER_77_897 vssd1 vssd1 vccd1 vccd1 sky130_fd_sc_hd__decap_8
XTAP_TAPCELL_ROW_82_1_750 vssd1 vccd1 sky130_fd_sc_hd__tapvpwrvgnd_1
XTAP_TAPCELL_ROW_12_1_715 vssd1 vccd1 sky130_fd_sc_hd__tapvpwrvgnd_1
XPHY_EDGE_ROW_33_1_Left_187 vssd1 vssd1 vccd1 vccd1 sky130_fd_sc_hd__decap_3
XFILLER_68_897 vssd1 vssd1 vccd1 vccd1 sky130_fd_sc_hd__decap_8
XFILLER_151_305 vccd1 vssd1 vccd1 vssd1 sky130_ef_sc_hd__decap_12
XFILLER_151_349 vccd1 vssd1 vccd1 vssd1 sky130_ef_sc_hd__decap_12
XFILLER_59_897 vccd1 vssd1 vccd1 vssd1 sky130_ef_sc_hd__decap_12
XFILLER_154_187 vssd1 vssd1 vccd1 vccd1 sky130_fd_sc_hd__fill_2
XFILLER_154_165 vssd1 vssd1 vccd1 vccd1 sky130_fd_sc_hd__decap_3
XFILLER_150_393 vccd1 vssd1 vccd1 vssd1 sky130_ef_sc_hd__decap_12
XFILLER_38_6 vccd1 vssd1 vccd1 vssd1 sky130_ef_sc_hd__decap_12
XFILLER_2_893 vccd1 vssd1 vccd1 vssd1 sky130_ef_sc_hd__decap_12
XPHY_EDGE_ROW_14_3_Right_19 vssd1 vssd1 vccd1 vccd1 sky130_fd_sc_hd__decap_3
XTAP_TAPCELL_ROW_68_3_927 vssd1 vccd1 sky130_fd_sc_hd__tapvpwrvgnd_1
Xoutput200 output200/A vssd1 vssd1 vccd1 vccd1 io_south_out[6] sky130_fd_sc_hd__buf_2
Xoutput222 output222/A vssd1 vssd1 vccd1 vccd1 io_west_out[28] sky130_fd_sc_hd__buf_2
Xoutput211 output211/A vssd1 vssd1 vccd1 vccd1 io_west_out[18] sky130_fd_sc_hd__buf_2
XFILLER_58_19 vssd1 vssd1 vccd1 vccd1 sky130_fd_sc_hd__decap_8
XTAP_TAPCELL_ROW_152_844 vssd1 vccd1 sky130_fd_sc_hd__tapvpwrvgnd_1
XTAP_TAPCELL_ROW_152_833 vssd1 vccd1 sky130_fd_sc_hd__tapvpwrvgnd_1
XTAP_TAPCELL_ROW_3_668 vssd1 vccd1 sky130_fd_sc_hd__tapvpwrvgnd_1
XTAP_TAPCELL_ROW_3_679 vssd1 vccd1 sky130_fd_sc_hd__tapvpwrvgnd_1
XPHY_EDGE_ROW_60_3_Right_65 vssd1 vssd1 vccd1 vccd1 sky130_fd_sc_hd__decap_3
XFILLER_74_29 vssd1 vssd1 vccd1 vccd1 sky130_fd_sc_hd__fill_1
XFILLER_152_669 vccd1 vssd1 vccd1 vssd1 sky130_ef_sc_hd__decap_12
XFILLER_152_625 vccd1 vssd1 vccd1 vssd1 sky130_ef_sc_hd__decap_12
XFILLER_151_113 vccd1 vssd1 vccd1 vssd1 sky130_ef_sc_hd__decap_12
XFILLER_3_3 vccd1 vssd1 vccd1 vssd1 sky130_ef_sc_hd__decap_12
XFILLER_0_15 vccd1 vssd1 vccd1 vssd1 sky130_ef_sc_hd__decap_12
XFILLER_2_189 vssd1 vssd1 vccd1 vccd1 sky130_fd_sc_hd__decap_6
XFILLER_148_909 vssd1 vssd1 vccd1 vccd1 sky130_fd_sc_hd__fill_1
XFILLER_36_3 vccd1 vssd1 vccd1 vssd1 sky130_ef_sc_hd__decap_12
XTAP_TAPCELL_ROW_0_605 vssd1 vccd1 sky130_fd_sc_hd__tapvpwrvgnd_1
XTAP_TAPCELL_ROW_0_616 vssd1 vccd1 sky130_fd_sc_hd__tapvpwrvgnd_1
XTAP_TAPCELL_ROW_0_627 vssd1 vccd1 sky130_fd_sc_hd__tapvpwrvgnd_1
XFILLER_69_18 vccd1 vssd1 vccd1 vssd1 sky130_ef_sc_hd__decap_12
XPHY_EDGE_ROW_151_Right_6 vssd1 vssd1 vccd1 vccd1 sky130_fd_sc_hd__decap_3
XFILLER_130_897 vssd1 vssd1 vccd1 vccd1 sky130_fd_sc_hd__decap_8
XFILLER_0_627 vssd1 vssd1 vccd1 vccd1 sky130_fd_sc_hd__decap_8
XPHY_EDGE_ROW_58_1_Left_212 vssd1 vssd1 vccd1 vccd1 sky130_fd_sc_hd__decap_3
XFILLER_140_3 vccd1 vssd1 vccd1 vssd1 sky130_ef_sc_hd__decap_12
XPHY_EDGE_ROW_110_1_Left_264 vssd1 vssd1 vccd1 vccd1 sky130_fd_sc_hd__decap_3
XFILLER_152_477 vccd1 vssd1 vccd1 vssd1 sky130_ef_sc_hd__decap_12
XFILLER_152_433 vccd1 vssd1 vccd1 vssd1 sky130_ef_sc_hd__decap_12
XTAP_TAPCELL_ROW_22_1_720 vssd1 vccd1 sky130_fd_sc_hd__tapvpwrvgnd_1
XFILLER_121_897 vccd1 vssd1 vccd1 vssd1 sky130_ef_sc_hd__decap_12
XPHY_EDGE_ROW_42_1_Left_196 vssd1 vssd1 vccd1 vccd1 sky130_fd_sc_hd__decap_3
XFILLER_112_897 vccd1 vssd1 vccd1 vssd1 sky130_ef_sc_hd__decap_12
XFILLER_111_15 vccd1 vssd1 vccd1 vssd1 sky130_ef_sc_hd__decap_12
XFILLER_105_6 vccd1 vssd1 vccd1 vssd1 sky130_ef_sc_hd__decap_12
XFILLER_96_27 vssd1 vssd1 vccd1 vccd1 sky130_fd_sc_hd__fill_1
XFILLER_152_77 vssd1 vssd1 vccd1 vccd1 sky130_fd_sc_hd__decap_6
XFILLER_103_897 vssd1 vssd1 vccd1 vccd1 sky130_fd_sc_hd__decap_8
XFILLER_153_753 vccd1 vssd1 vccd1 vssd1 sky130_ef_sc_hd__decap_12
XFILLER_4_741 vccd1 vssd1 vccd1 vssd1 sky130_ef_sc_hd__decap_12
XPHY_EDGE_ROW_23_3_Right_28 vssd1 vssd1 vccd1 vccd1 sky130_fd_sc_hd__decap_3
XFILLER_153_797 vccd1 vssd1 vccd1 vssd1 sky130_ef_sc_hd__decap_12
XFILLER_3_273 vssd1 vssd1 vccd1 vccd1 sky130_fd_sc_hd__decap_6
XFILLER_20_6 vccd1 vssd1 vccd1 vssd1 sky130_ef_sc_hd__decap_12
XFILLER_4_785 vccd1 vssd1 vccd1 vssd1 sky130_ef_sc_hd__decap_12
XTAP_TAPCELL_ROW_130_3_958 vssd1 vccd1 sky130_fd_sc_hd__tapvpwrvgnd_1
Xmax_cap232 input2/X vssd1 vssd1 vccd1 vccd1 max_cap232/X sky130_fd_sc_hd__buf_12
XFILLER_106_15 vccd1 vssd1 vccd1 vssd1 sky130_ef_sc_hd__decap_12
XTAP_TAPCELL_ROW_60_1_739 vssd1 vccd1 sky130_fd_sc_hd__tapvpwrvgnd_1
XFILLER_82_29 vssd1 vssd1 vccd1 vccd1 sky130_fd_sc_hd__fill_1
XFILLER_82_18 vssd1 vssd1 vccd1 vccd1 sky130_fd_sc_hd__decap_8
XFILLER_154_517 vssd1 vssd1 vccd1 vccd1 sky130_fd_sc_hd__fill_1
XFILLER_150_701 vccd1 vssd1 vccd1 vssd1 sky130_ef_sc_hd__decap_12
Xinput100 io_west_in[23] vssd1 vssd1 vccd1 vccd1 input100/X sky130_fd_sc_hd__buf_1
Xinput111 io_west_in[6] vssd1 vssd1 vccd1 vccd1 input111/X sky130_fd_sc_hd__buf_1
XFILLER_1_777 vssd1 vssd1 vccd1 vccd1 sky130_fd_sc_hd__decap_6
XPHY_EDGE_ROW_17_3_Left_322 vssd1 vssd1 vccd1 vccd1 sky130_fd_sc_hd__decap_3
XFILLER_153_561 vccd1 vssd1 vccd1 vssd1 sky130_ef_sc_hd__decap_12
XPHY_EDGE_ROW_8_3_Right_13 vssd1 vssd1 vccd1 vccd1 sky130_fd_sc_hd__decap_3
XPHY_EDGE_ROW_67_1_Left_221 vssd1 vssd1 vccd1 vccd1 sky130_fd_sc_hd__decap_3
XFILLER_77_29 vssd1 vssd1 vccd1 vccd1 sky130_fd_sc_hd__fill_1
XTAP_TAPCELL_ROW_150_794 vssd1 vccd1 sky130_fd_sc_hd__tapvpwrvgnd_1
XFILLER_154_347 vssd1 vssd1 vccd1 vccd1 sky130_fd_sc_hd__decap_8
XPHY_EDGE_ROW_80_1_Right_529 vssd1 vssd1 vccd1 vccd1 sky130_fd_sc_hd__decap_3
XFILLER_3_15 vccd1 vssd1 vccd1 vssd1 sky130_ef_sc_hd__decap_12
XFILLER_1_541 vccd1 vssd1 vccd1 vssd1 sky130_ef_sc_hd__decap_12
XFILLER_1_585 vccd1 vssd1 vccd1 vssd1 sky130_ef_sc_hd__decap_12
XFILLER_66_3 vccd1 vssd1 vccd1 vssd1 sky130_ef_sc_hd__decap_12
XFILLER_154_881 vccd1 vssd1 vccd1 vssd1 sky130_ef_sc_hd__decap_12
XFILLER_153_391 vssd1 vssd1 vccd1 vccd1 sky130_fd_sc_hd__fill_1
XTAP_TAPCELL_ROW_18_3_902 vssd1 vccd1 sky130_fd_sc_hd__tapvpwrvgnd_1
XFILLER_151_317 vccd1 vssd1 vccd1 vssd1 sky130_ef_sc_hd__decap_12
XPHY_EDGE_ROW_5_1_Right_599 vssd1 vssd1 vccd1 vccd1 sky130_fd_sc_hd__decap_3
XFILLER_3_839 vssd1 vssd1 vccd1 vccd1 sky130_fd_sc_hd__fill_1
XPHY_EDGE_ROW_32_3_Right_37 vssd1 vssd1 vccd1 vccd1 sky130_fd_sc_hd__decap_3
XFILLER_30_905 vssd1 vssd1 vccd1 vccd1 sky130_fd_sc_hd__fill_1
XTAP_TAPCELL_ROW_140_3_963 vssd1 vccd1 sky130_fd_sc_hd__tapvpwrvgnd_1
XTAP_TAPCELL_ROW_70_1_744 vssd1 vccd1 sky130_fd_sc_hd__tapvpwrvgnd_1
XFILLER_151_895 vssd1 vssd1 vccd1 vccd1 sky130_fd_sc_hd__fill_1
XFILLER_150_361 vssd1 vssd1 vccd1 vccd1 sky130_fd_sc_hd__decap_3
XFILLER_97_905 vssd1 vssd1 vccd1 vccd1 sky130_fd_sc_hd__fill_2
XFILLER_2_861 vssd1 vssd1 vccd1 vccd1 sky130_fd_sc_hd__decap_6
XPHY_EDGE_ROW_89_3_Right_94 vssd1 vssd1 vccd1 vccd1 sky130_fd_sc_hd__decap_3
XFILLER_1_393 vccd1 vssd1 vccd1 vssd1 sky130_ef_sc_hd__decap_12
Xoutput223 output223/A vssd1 vssd1 vccd1 vccd1 io_west_out[29] sky130_fd_sc_hd__buf_2
Xoutput212 output212/A vssd1 vssd1 vccd1 vccd1 io_west_out[19] sky130_fd_sc_hd__buf_2
Xoutput201 output201/A vssd1 vssd1 vccd1 vccd1 io_south_out[7] sky130_fd_sc_hd__buf_2
XFILLER_88_905 vssd1 vssd1 vccd1 vccd1 sky130_fd_sc_hd__fill_2
XFILLER_114_15 vccd1 vssd1 vccd1 vssd1 sky130_ef_sc_hd__decap_12
XFILLER_0_809 vssd1 vssd1 vccd1 vccd1 sky130_fd_sc_hd__decap_3
XTAP_TAPCELL_ROW_152_845 vssd1 vccd1 sky130_fd_sc_hd__tapvpwrvgnd_1
XTAP_TAPCELL_ROW_152_834 vssd1 vccd1 sky130_fd_sc_hd__tapvpwrvgnd_1
XFILLER_90_18 vssd1 vssd1 vccd1 vccd1 sky130_fd_sc_hd__decap_8
XTAP_TAPCELL_ROW_3_669 vssd1 vccd1 sky130_fd_sc_hd__tapvpwrvgnd_1
XFILLER_90_29 vssd1 vssd1 vccd1 vccd1 sky130_fd_sc_hd__fill_1
XFILLER_8_909 vssd1 vssd1 vccd1 vccd1 sky130_fd_sc_hd__fill_1
XFILLER_152_637 vssd1 vssd1 vccd1 vccd1 sky130_fd_sc_hd__decap_6
XFILLER_151_169 vccd1 vssd1 vccd1 vssd1 sky130_ef_sc_hd__decap_12
XFILLER_151_125 vccd1 vssd1 vccd1 vssd1 sky130_ef_sc_hd__decap_12
XPHY_EDGE_ROW_26_3_Left_331 vssd1 vssd1 vccd1 vccd1 sky130_fd_sc_hd__decap_3
XFILLER_0_27 vssd1 vssd1 vccd1 vccd1 sky130_fd_sc_hd__fill_1
XFILLER_29_3 vccd1 vssd1 vccd1 vssd1 sky130_ef_sc_hd__decap_12
XPHY_EDGE_ROW_139_1_Left_293 vssd1 vssd1 vccd1 vccd1 sky130_fd_sc_hd__decap_3
XPHY_EDGE_ROW_14_1_Left_168 vssd1 vssd1 vccd1 vccd1 sky130_fd_sc_hd__decap_3
XTAP_TAPCELL_ROW_0_606 vssd1 vccd1 sky130_fd_sc_hd__tapvpwrvgnd_1
XTAP_TAPCELL_ROW_0_617 vssd1 vccd1 sky130_fd_sc_hd__tapvpwrvgnd_1
XTAP_TAPCELL_ROW_0_628 vssd1 vccd1 sky130_fd_sc_hd__tapvpwrvgnd_1
XPHY_EDGE_ROW_76_1_Left_230 vssd1 vssd1 vccd1 vccd1 sky130_fd_sc_hd__decap_3
XFILLER_0_606 vssd1 vssd1 vccd1 vccd1 sky130_fd_sc_hd__decap_8
XFILLER_85_18 vccd1 vssd1 vccd1 vssd1 sky130_ef_sc_hd__decap_12
XFILLER_152_401 vccd1 vssd1 vccd1 vssd1 sky130_ef_sc_hd__decap_12
XFILLER_152_489 vccd1 vssd1 vccd1 vssd1 sky130_ef_sc_hd__decap_12