* NGSPICE file created from fpga.ext - technology: sky130A

* Black-box entry subcircuit for sky130_fd_sc_hd__diode_2 abstract view
.subckt sky130_fd_sc_hd__diode_2 DIODE VGND VNB VPB VPWR
.ends

* Black-box entry subcircuit for sky130_ef_sc_hd__decap_12 abstract view
.subckt sky130_ef_sc_hd__decap_12 VPWR VGND VPB VNB
.ends

* Black-box entry subcircuit for sky130_fd_sc_hd__decap_3 abstract view
.subckt sky130_fd_sc_hd__decap_3 VGND VNB VPB VPWR
.ends

* Black-box entry subcircuit for sky130_fd_sc_hd__tapvpwrvgnd_1 abstract view
.subckt sky130_fd_sc_hd__tapvpwrvgnd_1 VGND VPWR
.ends

* Black-box entry subcircuit for sky130_fd_sc_hd__decap_8 abstract view
.subckt sky130_fd_sc_hd__decap_8 VGND VNB VPB VPWR
.ends

* Black-box entry subcircuit for sky130_fd_sc_hd__fill_1 abstract view
.subckt sky130_fd_sc_hd__fill_1 VGND VNB VPB VPWR
.ends

* Black-box entry subcircuit for sky130_fd_sc_hd__decap_6 abstract view
.subckt sky130_fd_sc_hd__decap_6 VGND VNB VPB VPWR
.ends

* Black-box entry subcircuit for sky130_fd_sc_hd__decap_4 abstract view
.subckt sky130_fd_sc_hd__decap_4 VGND VNB VPB VPWR
.ends

* Black-box entry subcircuit for sky130_fd_sc_hd__buf_2 abstract view
.subckt sky130_fd_sc_hd__buf_2 A VGND VNB VPB VPWR X
.ends

* Black-box entry subcircuit for sky130_fd_sc_hd__fill_2 abstract view
.subckt sky130_fd_sc_hd__fill_2 VGND VNB VPB VPWR
.ends

* Black-box entry subcircuit for sky130_fd_sc_hd__clkbuf_2 abstract view
.subckt sky130_fd_sc_hd__clkbuf_2 A VGND VNB VPB VPWR X
.ends

* Black-box entry subcircuit for sky130_fd_sc_hd__clkbuf_4 abstract view
.subckt sky130_fd_sc_hd__clkbuf_4 A VGND VNB VPB VPWR X
.ends

* Black-box entry subcircuit for sky130_fd_sc_hd__buf_12 abstract view
.subckt sky130_fd_sc_hd__buf_12 A VGND VNB VPB VPWR X
.ends

* Black-box entry subcircuit for sky130_fd_sc_hd__buf_1 abstract view
.subckt sky130_fd_sc_hd__buf_1 A VGND VNB VPB VPWR X
.ends

* Black-box entry subcircuit for sky130_fd_sc_hd__clkbuf_16 abstract view
.subckt sky130_fd_sc_hd__clkbuf_16 A VGND VNB VPB VPWR X
.ends

* Black-box entry subcircuit for sky130_fd_sc_hd__clkbuf_1 abstract view
.subckt sky130_fd_sc_hd__clkbuf_1 A VGND VNB VPB VPWR X
.ends

* Black-box entry subcircuit for sky130_fd_sc_hd__dlymetal6s2s_1 abstract view
.subckt sky130_fd_sc_hd__dlymetal6s2s_1 A VGND VNB VPB VPWR X
.ends

* Black-box entry subcircuit for fpgacell abstract view
.subckt fpgacell CBeast_in[0] CBeast_in[10] CBeast_in[11] CBeast_in[12] CBeast_in[13]
+ CBeast_in[14] CBeast_in[15] CBeast_in[1] CBeast_in[2] CBeast_in[3] CBeast_in[4]
+ CBeast_in[5] CBeast_in[6] CBeast_in[7] CBeast_in[8] CBeast_in[9] CBeast_out[0] CBeast_out[10]
+ CBeast_out[11] CBeast_out[12] CBeast_out[13] CBeast_out[14] CBeast_out[15] CBeast_out[1]
+ CBeast_out[2] CBeast_out[3] CBeast_out[4] CBeast_out[5] CBeast_out[6] CBeast_out[7]
+ CBeast_out[8] CBeast_out[9] CBnorth_in[0] CBnorth_in[10] CBnorth_in[11] CBnorth_in[12]
+ CBnorth_in[13] CBnorth_in[14] CBnorth_in[15] CBnorth_in[1] CBnorth_in[2] CBnorth_in[3]
+ CBnorth_in[4] CBnorth_in[5] CBnorth_in[6] CBnorth_in[7] CBnorth_in[8] CBnorth_in[9]
+ CBnorth_out[0] CBnorth_out[10] CBnorth_out[11] CBnorth_out[12] CBnorth_out[13] CBnorth_out[14]
+ CBnorth_out[15] CBnorth_out[1] CBnorth_out[2] CBnorth_out[3] CBnorth_out[4] CBnorth_out[5]
+ CBnorth_out[6] CBnorth_out[7] CBnorth_out[8] CBnorth_out[9] SBsouth_in[0] SBsouth_in[10]
+ SBsouth_in[11] SBsouth_in[12] SBsouth_in[13] SBsouth_in[14] SBsouth_in[15] SBsouth_in[1]
+ SBsouth_in[2] SBsouth_in[3] SBsouth_in[4] SBsouth_in[5] SBsouth_in[6] SBsouth_in[7]
+ SBsouth_in[8] SBsouth_in[9] SBsouth_out[0] SBsouth_out[10] SBsouth_out[11] SBsouth_out[12]
+ SBsouth_out[13] SBsouth_out[14] SBsouth_out[15] SBsouth_out[1] SBsouth_out[2] SBsouth_out[3]
+ SBsouth_out[4] SBsouth_out[5] SBsouth_out[6] SBsouth_out[7] SBsouth_out[8] SBsouth_out[9]
+ SBwest_in[0] SBwest_in[10] SBwest_in[11] SBwest_in[12] SBwest_in[13] SBwest_in[14]
+ SBwest_in[15] SBwest_in[1] SBwest_in[2] SBwest_in[3] SBwest_in[4] SBwest_in[5] SBwest_in[6]
+ SBwest_in[7] SBwest_in[8] SBwest_in[9] SBwest_out[0] SBwest_out[10] SBwest_out[11]
+ SBwest_out[12] SBwest_out[13] SBwest_out[14] SBwest_out[15] SBwest_out[1] SBwest_out[2]
+ SBwest_out[3] SBwest_out[4] SBwest_out[5] SBwest_out[6] SBwest_out[7] SBwest_out[8]
+ SBwest_out[9] clk config_data_in config_data_out config_en en le_clk le_en le_nrst
+ nrst vccd1 vssd1
.ends

.subckt fpga clk config_data_in config_data_out config_en en io_east_in[0] io_east_in[10]
+ io_east_in[11] io_east_in[12] io_east_in[13] io_east_in[14] io_east_in[15] io_east_in[16]
+ io_east_in[17] io_east_in[18] io_east_in[19] io_east_in[1] io_east_in[20] io_east_in[21]
+ io_east_in[22] io_east_in[23] io_east_in[24] io_east_in[25] io_east_in[26] io_east_in[27]
+ io_east_in[28] io_east_in[29] io_east_in[2] io_east_in[30] io_east_in[31] io_east_in[3]
+ io_east_in[4] io_east_in[5] io_east_in[6] io_east_in[7] io_east_in[8] io_east_in[9]
+ io_east_out[0] io_east_out[10] io_east_out[11] io_east_out[12] io_east_out[13] io_east_out[14]
+ io_east_out[15] io_east_out[16] io_east_out[17] io_east_out[18] io_east_out[19]
+ io_east_out[1] io_east_out[20] io_east_out[21] io_east_out[22] io_east_out[23] io_east_out[24]
+ io_east_out[25] io_east_out[26] io_east_out[27] io_east_out[28] io_east_out[29]
+ io_east_out[2] io_east_out[30] io_east_out[31] io_east_out[3] io_east_out[4] io_east_out[5]
+ io_east_out[6] io_east_out[7] io_east_out[8] io_east_out[9] io_north_in[0] io_north_in[10]
+ io_north_in[11] io_north_in[12] io_north_in[13] io_north_in[14] io_north_in[15]
+ io_north_in[16] io_north_in[17] io_north_in[18] io_north_in[19] io_north_in[1] io_north_in[20]
+ io_north_in[21] io_north_in[22] io_north_in[23] io_north_in[24] io_north_in[25]
+ io_north_in[26] io_north_in[27] io_north_in[28] io_north_in[29] io_north_in[2] io_north_in[30]
+ io_north_in[31] io_north_in[3] io_north_in[4] io_north_in[5] io_north_in[6] io_north_in[7]
+ io_north_in[8] io_north_in[9] io_north_out[0] io_north_out[10] io_north_out[11]
+ io_north_out[12] io_north_out[13] io_north_out[14] io_north_out[15] io_north_out[16]
+ io_north_out[17] io_north_out[18] io_north_out[19] io_north_out[1] io_north_out[20]
+ io_north_out[21] io_north_out[22] io_north_out[23] io_north_out[24] io_north_out[25]
+ io_north_out[26] io_north_out[27] io_north_out[28] io_north_out[29] io_north_out[2]
+ io_north_out[30] io_north_out[31] io_north_out[3] io_north_out[4] io_north_out[5]
+ io_north_out[6] io_north_out[7] io_north_out[8] io_north_out[9] io_south_in[0] io_south_in[10]
+ io_south_in[11] io_south_in[12] io_south_in[13] io_south_in[14] io_south_in[15]
+ io_south_in[16] io_south_in[17] io_south_in[18] io_south_in[19] io_south_in[1] io_south_in[20]
+ io_south_in[21] io_south_in[22] io_south_in[23] io_south_in[24] io_south_in[25]
+ io_south_in[26] io_south_in[27] io_south_in[28] io_south_in[29] io_south_in[2] io_south_in[30]
+ io_south_in[31] io_south_in[3] io_south_in[4] io_south_in[5] io_south_in[6] io_south_in[7]
+ io_south_in[8] io_south_in[9] io_south_out[0] io_south_out[10] io_south_out[11]
+ io_south_out[12] io_south_out[13] io_south_out[14] io_south_out[15] io_south_out[16]
+ io_south_out[17] io_south_out[18] io_south_out[19] io_south_out[1] io_south_out[20]
+ io_south_out[21] io_south_out[22] io_south_out[23] io_south_out[24] io_south_out[25]
+ io_south_out[26] io_south_out[27] io_south_out[28] io_south_out[29] io_south_out[2]
+ io_south_out[30] io_south_out[31] io_south_out[3] io_south_out[4] io_south_out[5]
+ io_south_out[6] io_south_out[7] io_south_out[8] io_south_out[9] io_west_in[0] io_west_in[10]
+ io_west_in[11] io_west_in[12] io_west_in[13] io_west_in[14] io_west_in[15] io_west_in[16]
+ io_west_in[17] io_west_in[18] io_west_in[19] io_west_in[1] io_west_in[20] io_west_in[21]
+ io_west_in[22] io_west_in[23] io_west_in[24] io_west_in[25] io_west_in[26] io_west_in[27]
+ io_west_in[28] io_west_in[29] io_west_in[2] io_west_in[30] io_west_in[31] io_west_in[3]
+ io_west_in[4] io_west_in[5] io_west_in[6] io_west_in[7] io_west_in[8] io_west_in[9]
+ io_west_out[0] io_west_out[10] io_west_out[11] io_west_out[12] io_west_out[13] io_west_out[14]
+ io_west_out[15] io_west_out[16] io_west_out[17] io_west_out[18] io_west_out[19]
+ io_west_out[1] io_west_out[20] io_west_out[21] io_west_out[22] io_west_out[23] io_west_out[24]
+ io_west_out[25] io_west_out[26] io_west_out[27] io_west_out[28] io_west_out[29]
+ io_west_out[2] io_west_out[30] io_west_out[31] io_west_out[3] io_west_out[4] io_west_out[5]
+ io_west_out[6] io_west_out[7] io_west_out[8] io_west_out[9] le_clk le_en le_nrst
+ nrst vccd1 vssd1
XANTENNA_cell1_config_en max_cap266/X vssd1 vssd1 vccd1 vccd1 sky130_fd_sc_hd__diode_2
XFILLER_168_29 vccd1 vssd1 vccd1 vssd1 sky130_ef_sc_hd__decap_12
XFILLER_74_1025 vccd1 vssd1 vccd1 vssd1 sky130_ef_sc_hd__decap_12
XFILLER_52_29 vccd1 vssd1 vccd1 vssd1 sky130_ef_sc_hd__decap_12
XPHY_EDGE_ROW_33_1_Right_529 vssd1 vssd1 vccd1 vccd1 sky130_fd_sc_hd__decap_3
XTAP_TAPCELL_ROW_6_822 vssd1 vccd1 sky130_fd_sc_hd__tapvpwrvgnd_1
XTAP_TAPCELL_ROW_6_800 vssd1 vccd1 sky130_fd_sc_hd__tapvpwrvgnd_1
XTAP_TAPCELL_ROW_6_811 vssd1 vccd1 sky130_fd_sc_hd__tapvpwrvgnd_1
XFILLER_93_47 vssd1 vssd1 vccd1 vccd1 sky130_fd_sc_hd__decap_3
XFILLER_26_41 vssd1 vssd1 vccd1 vccd1 sky130_fd_sc_hd__decap_8
XANTENNA_input127_A io_west_in[5] vssd1 vssd1 vccd1 vccd1 sky130_fd_sc_hd__diode_2
XANTENNA_input92_A io_south_in[31] vssd1 vssd1 vccd1 vccd1 sky130_fd_sc_hd__diode_2
XFILLER_170_837 vccd1 vssd1 vccd1 vssd1 sky130_ef_sc_hd__decap_12
XPHY_EDGE_ROW_61_3_Right_66 vssd1 vssd1 vccd1 vccd1 sky130_fd_sc_hd__decap_3
XFILLER_47_8 vccd1 vssd1 vccd1 vssd1 sky130_ef_sc_hd__decap_12
XFILLER_97_1025 vccd1 vssd1 vccd1 vssd1 sky130_ef_sc_hd__decap_12
XFILLER_3_1007 vssd1 vssd1 vccd1 vccd1 sky130_fd_sc_hd__fill_1
XPHY_EDGE_ROW_27_3_Left_364 vssd1 vssd1 vccd1 vccd1 sky130_fd_sc_hd__decap_3
XPHY_EDGE_ROW_160_1_Right_656 vssd1 vssd1 vccd1 vccd1 sky130_fd_sc_hd__decap_3
XFILLER_41_1013 vccd1 vssd1 vccd1 vssd1 sky130_ef_sc_hd__decap_12
XFILLER_63_39 vssd1 vssd1 vccd1 vccd1 sky130_fd_sc_hd__decap_8
XFILLER_168_469 vssd1 vssd1 vccd1 vccd1 sky130_fd_sc_hd__decap_6
XFILLER_88_47 vssd1 vssd1 vccd1 vccd1 sky130_fd_sc_hd__fill_1
XFILLER_2_357 vssd1 vssd1 vccd1 vccd1 sky130_fd_sc_hd__decap_6
XFILLER_160_41 vssd1 vssd1 vccd1 vccd1 sky130_fd_sc_hd__decap_8
XPHY_EDGE_ROW_92_3_Left_429 vssd1 vssd1 vccd1 vccd1 sky130_fd_sc_hd__decap_3
XFILLER_18_1037 vssd1 vssd1 vccd1 vccd1 sky130_fd_sc_hd__fill_1
XFILLER_168_981 vccd1 vssd1 vccd1 vssd1 sky130_ef_sc_hd__decap_12
XFILLER_170_601 vssd1 vssd1 vccd1 vccd1 sky130_fd_sc_hd__decap_4
XFILLER_6_641 vssd1 vssd1 vccd1 vccd1 sky130_fd_sc_hd__decap_3
XFILLER_6_685 vccd1 vssd1 vccd1 vssd1 sky130_ef_sc_hd__decap_12
XFILLER_170_645 vccd1 vssd1 vccd1 vssd1 sky130_ef_sc_hd__decap_12
XPHY_EDGE_ROW_150_3_Right_155 vssd1 vssd1 vccd1 vccd1 sky130_fd_sc_hd__decap_3
XFILLER_64_1013 vccd1 vssd1 vccd1 vssd1 sky130_ef_sc_hd__decap_12
XPHY_EDGE_ROW_161_1_Right_657 vssd1 vssd1 vccd1 vccd1 sky130_fd_sc_hd__decap_3
Xoutput253 output253/A vssd1 vssd1 vccd1 vccd1 io_west_out[28] sky130_fd_sc_hd__buf_2
XPHY_EDGE_ROW_148_1_Left_319 vssd1 vssd1 vccd1 vccd1 sky130_fd_sc_hd__decap_3
Xoutput242 output242/A vssd1 vssd1 vccd1 vccd1 io_west_out[18] sky130_fd_sc_hd__buf_2
Xoutput231 output231/A vssd1 vssd1 vccd1 vccd1 io_south_out[8] sky130_fd_sc_hd__buf_2
Xoutput264 output264/A vssd1 vssd1 vccd1 vccd1 io_west_out[9] sky130_fd_sc_hd__buf_2
Xoutput220 output220/A vssd1 vssd1 vccd1 vccd1 io_south_out[27] sky130_fd_sc_hd__buf_2
XTAP_TAPCELL_ROW_169_975 vssd1 vccd1 sky130_fd_sc_hd__tapvpwrvgnd_1
XFILLER_74_27 vssd1 vssd1 vccd1 vccd1 sky130_fd_sc_hd__fill_1
XFILLER_74_49 vssd1 vssd1 vccd1 vccd1 sky130_fd_sc_hd__fill_1
XFILLER_168_233 vccd1 vssd1 vccd1 vssd1 sky130_ef_sc_hd__decap_12
XFILLER_90_15 vccd1 vssd1 vccd1 vssd1 sky130_ef_sc_hd__decap_12
XFILLER_168_277 vccd1 vssd1 vccd1 vssd1 sky130_ef_sc_hd__decap_12
XFILLER_87_1013 vccd1 vssd1 vccd1 vssd1 sky130_ef_sc_hd__decap_12
XANTENNA_cell1_config_data_in cell1/config_data_in vssd1 vssd1 vccd1 vccd1 sky130_fd_sc_hd__diode_2
XFILLER_139_31 vccd1 vssd1 vccd1 vssd1 sky130_ef_sc_hd__decap_12
XFILLER_99_35 vccd1 vssd1 vccd1 vssd1 sky130_ef_sc_hd__decap_12
XANTENNA_input55_A io_north_in[27] vssd1 vssd1 vccd1 vccd1 sky130_fd_sc_hd__diode_2
XFILLER_2_165 vccd1 vssd1 vccd1 vssd1 sky130_ef_sc_hd__decap_12
XFILLER_2_121 vccd1 vssd1 vccd1 vssd1 sky130_ef_sc_hd__decap_12
XFILLER_94_1039 vssd1 vssd1 vccd1 vccd1 sky130_fd_sc_hd__decap_8
XANTENNA_cell3_le_nrst input134/X vssd1 vssd1 vccd1 vccd1 sky130_fd_sc_hd__diode_2
XFILLER_0_57 vccd1 vssd1 vccd1 vssd1 sky130_ef_sc_hd__decap_12
XFILLER_17_9 vccd1 vssd1 vccd1 vssd1 sky130_ef_sc_hd__decap_12
XTAP_TAPCELL_ROW_171_1032 vssd1 vccd1 sky130_fd_sc_hd__tapvpwrvgnd_1
XTAP_TAPCELL_ROW_171_1021 vssd1 vccd1 sky130_fd_sc_hd__tapvpwrvgnd_1
XFILLER_170_475 vssd1 vssd1 vccd1 vccd1 sky130_fd_sc_hd__fill_1
XTAP_TAPCELL_ROW_171_1010 vssd1 vccd1 sky130_fd_sc_hd__tapvpwrvgnd_1
XFILLER_9_1013 vccd1 vssd1 vccd1 vssd1 sky130_ef_sc_hd__decap_12
XPHY_EDGE_ROW_151_3_Right_156 vssd1 vssd1 vccd1 vccd1 sky130_fd_sc_hd__decap_3
XPHY_EDGE_ROW_24_3_Right_29 vssd1 vssd1 vccd1 vccd1 sky130_fd_sc_hd__decap_3
XTAP_TAPCELL_ROW_116_3_1094 vssd1 vccd1 sky130_fd_sc_hd__tapvpwrvgnd_1
XTAP_TAPCELL_ROW_0_669 vssd1 vccd1 sky130_fd_sc_hd__tapvpwrvgnd_1
XFILLER_121_9 vccd1 vssd1 vccd1 vssd1 sky130_ef_sc_hd__decap_12
XFILLER_109_45 vssd1 vssd1 vccd1 vccd1 sky130_fd_sc_hd__decap_4
XFILLER_5_909 vccd1 vssd1 vccd1 vssd1 sky130_ef_sc_hd__decap_12
XFILLER_4_419 vssd1 vssd1 vccd1 vccd1 sky130_fd_sc_hd__fill_1
XFILLER_60_29 vccd1 vssd1 vccd1 vssd1 sky130_ef_sc_hd__decap_12
XANTENNA_input2_X input2/X vssd1 vssd1 vccd1 vccd1 sky130_fd_sc_hd__diode_2
XPHY_EDGE_ROW_162_1_Right_658 vssd1 vssd1 vccd1 vccd1 sky130_fd_sc_hd__decap_3
XFILLER_125_44 vssd1 vssd1 vccd1 vccd1 sky130_fd_sc_hd__decap_4
XFILLER_69_27 vccd1 vssd1 vccd1 vssd1 sky130_ef_sc_hd__decap_12
XFILLER_0_625 vssd1 vssd1 vccd1 vccd1 sky130_fd_sc_hd__fill_1
XPHY_EDGE_ROW_104_3_Left_441 vssd1 vssd1 vccd1 vccd1 sky130_fd_sc_hd__decap_3
XFILLER_141_43 vssd1 vssd1 vccd1 vccd1 sky130_fd_sc_hd__decap_6
XFILLER_169_597 vccd1 vssd1 vccd1 vssd1 sky130_ef_sc_hd__decap_12
XFILLER_169_553 vssd1 vssd1 vccd1 vccd1 sky130_fd_sc_hd__decap_6
XFILLER_141_1037 vssd1 vssd1 vccd1 vccd1 sky130_fd_sc_hd__decap_6
XPHY_EDGE_ROW_70_3_Right_75 vssd1 vssd1 vccd1 vccd1 sky130_fd_sc_hd__decap_3
XTAP_TAPCELL_ROW_66_3_1069 vssd1 vccd1 sky130_fd_sc_hd__tapvpwrvgnd_1
XFILLER_34_41 vssd1 vssd1 vccd1 vccd1 sky130_fd_sc_hd__decap_8
XFILLER_3_441 vssd1 vssd1 vccd1 vccd1 sky130_fd_sc_hd__decap_6
XPHY_EDGE_ROW_36_3_Left_373 vssd1 vssd1 vccd1 vccd1 sky130_fd_sc_hd__decap_3
XFILLER_3_485 vccd1 vssd1 vccd1 vssd1 sky130_ef_sc_hd__decap_12
XPHY_EDGE_ROW_124_1_Right_620 vssd1 vssd1 vccd1 vccd1 sky130_fd_sc_hd__decap_3
XFILLER_98_3 vccd1 vssd1 vccd1 vssd1 sky130_ef_sc_hd__decap_12
XFILLER_171_762 vssd1 vssd1 vccd1 vccd1 sky130_fd_sc_hd__fill_2
XFILLER_118_1039 vssd1 vssd1 vccd1 vccd1 sky130_fd_sc_hd__decap_8
XPHY_EDGE_ROW_152_3_Right_157 vssd1 vssd1 vccd1 vccd1 sky130_fd_sc_hd__decap_3
XFILLER_164_1037 vssd1 vssd1 vccd1 vccd1 sky130_fd_sc_hd__fill_1
XFILLER_111_35 vccd1 vssd1 vccd1 vssd1 sky130_ef_sc_hd__decap_12
XPHY_EDGE_ROW_9_3_Right_14 vssd1 vssd1 vccd1 vccd1 sky130_fd_sc_hd__decap_3
XFILLER_20_21 vssd1 vssd1 vccd1 vccd1 sky130_fd_sc_hd__decap_6
XPHY_EDGE_ROW_29_1_Left_200 vssd1 vssd1 vccd1 vccd1 sky130_fd_sc_hd__decap_3
XPHY_EDGE_ROW_163_1_Right_659 vssd1 vssd1 vccd1 vccd1 sky130_fd_sc_hd__decap_3
XFILLER_1_945 vssd1 vssd1 vccd1 vccd1 sky130_fd_sc_hd__decap_6
XTAP_TAPCELL_ROW_4_761 vssd1 vccd1 sky130_fd_sc_hd__tapvpwrvgnd_1
XFILLER_0_455 vssd1 vssd1 vccd1 vccd1 sky130_fd_sc_hd__fill_1
XFILLER_0_433 vssd1 vssd1 vccd1 vccd1 sky130_fd_sc_hd__decap_8
XANTENNA_input18_A io_east_in[22] vssd1 vssd1 vccd1 vccd1 sky130_fd_sc_hd__diode_2
XTAP_TAPCELL_ROW_4_772 vssd1 vccd1 sky130_fd_sc_hd__tapvpwrvgnd_1
XFILLER_169_361 vccd1 vssd1 vccd1 vssd1 sky130_ef_sc_hd__decap_12
XPHY_EDGE_ROW_13_1_Left_184 vssd1 vssd1 vccd1 vccd1 sky130_fd_sc_hd__decap_3
XFILLER_3_293 vccd1 vssd1 vccd1 vssd1 sky130_ef_sc_hd__decap_12
XPHY_EDGE_ROW_157_1_Left_328 vssd1 vssd1 vccd1 vccd1 sky130_fd_sc_hd__decap_3
XFILLER_6_1005 vssd1 vssd1 vccd1 vccd1 sky130_fd_sc_hd__decap_3
XFILLER_13_3 vccd1 vssd1 vccd1 vssd1 sky130_ef_sc_hd__decap_12
XFILLER_167_309 vssd1 vssd1 vccd1 vccd1 sky130_fd_sc_hd__decap_4
XPHY_EDGE_ROW_125_1_Right_621 vssd1 vssd1 vccd1 vccd1 sky130_fd_sc_hd__decap_3
XTAP_TAPCELL_ROW_42_1_847 vssd1 vccd1 sky130_fd_sc_hd__tapvpwrvgnd_1
XPHY_EDGE_ROW_153_3_Right_158 vssd1 vssd1 vccd1 vccd1 sky130_fd_sc_hd__decap_3
XFILLER_171_581 vssd1 vssd1 vccd1 vccd1 sky130_fd_sc_hd__decap_4
XFILLER_131_1025 vccd1 vssd1 vccd1 vssd1 sky130_ef_sc_hd__decap_12
XFILLER_82_49 vssd1 vssd1 vccd1 vccd1 sky130_fd_sc_hd__fill_1
XFILLER_82_27 vssd1 vssd1 vccd1 vccd1 sky130_fd_sc_hd__fill_1
XFILLER_167_865 vssd1 vssd1 vccd1 vccd1 sky130_fd_sc_hd__decap_3
XFILLER_51_1037 vssd1 vssd1 vccd1 vccd1 sky130_fd_sc_hd__fill_2
XFILLER_5_503 vssd1 vssd1 vccd1 vccd1 sky130_fd_sc_hd__fill_1
XFILLER_1_753 vccd1 vssd1 vccd1 vssd1 sky130_ef_sc_hd__decap_12
Xinput120 io_west_in[28] vssd1 vssd1 vccd1 vccd1 input120/X sky130_fd_sc_hd__clkbuf_2
XFILLER_0_274 vssd1 vssd1 vccd1 vccd1 sky130_fd_sc_hd__fill_2
Xinput131 io_west_in[9] vssd1 vssd1 vccd1 vccd1 input131/X sky130_fd_sc_hd__clkbuf_2
XFILLER_1_797 vccd1 vssd1 vccd1 vssd1 sky130_ef_sc_hd__decap_12
XPHY_EDGE_ROW_115_3_Right_120 vssd1 vssd1 vccd1 vccd1 sky130_fd_sc_hd__decap_3
XPHY_EDGE_ROW_33_3_Right_38 vssd1 vssd1 vccd1 vccd1 sky130_fd_sc_hd__decap_3
XFILLER_154_1047 vssd1 vssd1 vccd1 vccd1 sky130_fd_sc_hd__fill_2
XFILLER_154_1025 vccd1 vssd1 vccd1 vssd1 sky130_ef_sc_hd__decap_12
XPHY_EDGE_ROW_84_5_Left_421 vssd1 vssd1 vccd1 vccd1 sky130_fd_sc_hd__decap_3
XFILLER_28_1039 vssd1 vssd1 vccd1 vccd1 sky130_fd_sc_hd__decap_8
XPHY_EDGE_ROW_126_1_Right_622 vssd1 vssd1 vccd1 vccd1 sky130_fd_sc_hd__decap_3
XFILLER_167_106 vssd1 vssd1 vccd1 vccd1 sky130_fd_sc_hd__fill_2
XFILLER_74_1037 vssd1 vssd1 vccd1 vccd1 sky130_fd_sc_hd__fill_1
XPHY_EDGE_ROW_113_3_Left_450 vssd1 vssd1 vccd1 vccd1 sky130_fd_sc_hd__decap_3
XTAP_TAPCELL_ROW_6_801 vssd1 vccd1 sky130_fd_sc_hd__tapvpwrvgnd_1
XTAP_TAPCELL_ROW_6_812 vssd1 vccd1 sky130_fd_sc_hd__tapvpwrvgnd_1
XPHY_EDGE_ROW_154_3_Right_159 vssd1 vssd1 vccd1 vccd1 sky130_fd_sc_hd__decap_3
XFILLER_93_15 vccd1 vssd1 vccd1 vssd1 sky130_ef_sc_hd__decap_12
XFILLER_77_49 vssd1 vssd1 vccd1 vccd1 sky130_fd_sc_hd__fill_1
XTAP_TAPCELL_ROW_6_823 vssd1 vccd1 sky130_fd_sc_hd__tapvpwrvgnd_1
XFILLER_165_3 vccd1 vssd1 vccd1 vssd1 sky130_ef_sc_hd__decap_12
XFILLER_170_805 vssd1 vssd1 vccd1 vccd1 sky130_fd_sc_hd__decap_6
XFILLER_167_673 vccd1 vssd1 vccd1 vssd1 sky130_ef_sc_hd__decap_12
XFILLER_158_41 vssd1 vssd1 vccd1 vccd1 sky130_fd_sc_hd__decap_8
XPHY_EDGE_ROW_45_3_Left_382 vssd1 vssd1 vccd1 vccd1 sky130_fd_sc_hd__decap_3
XFILLER_42_41 vssd1 vssd1 vccd1 vccd1 sky130_fd_sc_hd__decap_8
XANTENNA_input85_A io_south_in[25] vssd1 vssd1 vccd1 vccd1 sky130_fd_sc_hd__diode_2
XFILLER_170_849 vccd1 vssd1 vccd1 vssd1 sky130_ef_sc_hd__decap_12
XFILLER_3_57 vccd1 vssd1 vccd1 vssd1 sky130_ef_sc_hd__decap_12
XFILLER_1_561 vccd1 vssd1 vccd1 vssd1 sky130_ef_sc_hd__decap_12
XFILLER_97_1037 vccd1 vssd1 vccd1 vssd1 sky130_ef_sc_hd__decap_12
XFILLER_121_1013 vccd1 vssd1 vccd1 vssd1 sky130_ef_sc_hd__decap_12
XPHY_EDGE_ROW_116_3_Right_121 vssd1 vssd1 vccd1 vccd1 sky130_fd_sc_hd__decap_3
XFILLER_41_1025 vccd1 vssd1 vccd1 vssd1 sky130_ef_sc_hd__decap_12
XPHY_EDGE_ROW_127_1_Right_623 vssd1 vssd1 vccd1 vccd1 sky130_fd_sc_hd__decap_3
XFILLER_103_47 vssd1 vssd1 vccd1 vccd1 sky130_fd_sc_hd__decap_3
XFILLER_6_119 vssd1 vssd1 vccd1 vccd1 sky130_fd_sc_hd__fill_1
XFILLER_88_15 vccd1 vssd1 vccd1 vssd1 sky130_ef_sc_hd__decap_12
XPHY_EDGE_ROW_22_1_Left_193 vssd1 vssd1 vccd1 vccd1 sky130_fd_sc_hd__decap_3
XFILLER_169_51 vssd1 vssd1 vccd1 vccd1 sky130_fd_sc_hd__decap_4
XFILLER_144_1013 vccd1 vssd1 vccd1 vssd1 sky130_ef_sc_hd__decap_12
XFILLER_57_1043 vssd1 vssd1 vccd1 vccd1 sky130_fd_sc_hd__fill_1
XFILLER_168_993 vccd1 vssd1 vccd1 vssd1 sky130_ef_sc_hd__decap_12
XFILLER_170_657 vccd1 vssd1 vccd1 vssd1 sky130_ef_sc_hd__decap_12
XPHY_EDGE_ROW_166_1_Left_337 vssd1 vssd1 vccd1 vccd1 sky130_fd_sc_hd__decap_3
XTAP_TAPCELL_ROW_52_1_852 vssd1 vccd1 sky130_fd_sc_hd__tapvpwrvgnd_1
XFILLER_6_697 vssd1 vssd1 vccd1 vccd1 sky130_fd_sc_hd__decap_3
XPHY_EDGE_ROW_168_Right_8 vssd1 vssd1 vccd1 vccd1 sky130_fd_sc_hd__decap_3
XFILLER_64_1025 vccd1 vssd1 vccd1 vssd1 sky130_ef_sc_hd__decap_12
XFILLER_1_391 vssd1 vssd1 vccd1 vccd1 sky130_fd_sc_hd__fill_1
XFILLER_2_881 vccd1 vssd1 vccd1 vssd1 sky130_ef_sc_hd__decap_12
XPHY_EDGE_ROW_117_3_Right_122 vssd1 vssd1 vccd1 vccd1 sky130_fd_sc_hd__decap_3
XTAP_TAPCELL_ROW_169_976 vssd1 vccd1 sky130_fd_sc_hd__tapvpwrvgnd_1
Xoutput254 output254/A vssd1 vssd1 vccd1 vccd1 io_west_out[29] sky130_fd_sc_hd__buf_2
Xoutput243 output243/A vssd1 vssd1 vccd1 vccd1 io_west_out[19] sky130_fd_sc_hd__buf_2
XPHY_EDGE_ROW_98_1_Left_269 vssd1 vssd1 vccd1 vccd1 sky130_fd_sc_hd__decap_3
Xoutput232 output232/A vssd1 vssd1 vccd1 vccd1 io_south_out[9] sky130_fd_sc_hd__buf_2
XFILLER_58_29 vccd1 vssd1 vccd1 vssd1 sky130_ef_sc_hd__decap_12
Xoutput210 output210/A vssd1 vssd1 vccd1 vccd1 io_south_out[18] sky130_fd_sc_hd__buf_2
Xoutput221 output221/A vssd1 vssd1 vccd1 vccd1 io_south_out[28] sky130_fd_sc_hd__buf_2
XFILLER_0_818 vssd1 vssd1 vccd1 vccd1 sky130_fd_sc_hd__decap_8
XFILLER_168_245 vssd1 vssd1 vccd1 vccd1 sky130_fd_sc_hd__decap_6
XPHY_EDGE_ROW_128_1_Right_624 vssd1 vssd1 vccd1 vccd1 sky130_fd_sc_hd__decap_3
XFILLER_90_49 vssd1 vssd1 vccd1 vccd1 sky130_fd_sc_hd__fill_1
XFILLER_90_27 vssd1 vssd1 vccd1 vccd1 sky130_fd_sc_hd__fill_1
XFILLER_168_289 vccd1 vssd1 vccd1 vssd1 sky130_ef_sc_hd__decap_12
XFILLER_155_31 vccd1 vssd1 vccd1 vssd1 sky130_ef_sc_hd__decap_12
XFILLER_87_1025 vccd1 vssd1 vccd1 vssd1 sky130_ef_sc_hd__decap_12
XFILLER_139_43 vssd1 vssd1 vccd1 vccd1 sky130_fd_sc_hd__decap_6
XFILLER_128_3 vccd1 vssd1 vccd1 vssd1 sky130_ef_sc_hd__decap_12
XFILLER_99_47 vssd1 vssd1 vccd1 vccd1 sky130_fd_sc_hd__decap_3
XANTENNA_input48_A io_north_in[20] vssd1 vssd1 vccd1 vccd1 sky130_fd_sc_hd__diode_2
XFILLER_171_41 vccd1 vssd1 vccd1 vssd1 sky130_ef_sc_hd__decap_12
XFILLER_2_177 vccd1 vssd1 vccd1 vssd1 sky130_ef_sc_hd__decap_12
XFILLER_2_133 vssd1 vssd1 vccd1 vccd1 sky130_fd_sc_hd__decap_6
XFILLER_171_85 vccd1 vssd1 vccd1 vssd1 sky130_ef_sc_hd__decap_12
XPHY_EDGE_ROW_90_1_Right_586 vssd1 vssd1 vccd1 vccd1 sky130_fd_sc_hd__decap_3
XPHY_EDGE_ROW_42_3_Right_47 vssd1 vssd1 vccd1 vccd1 sky130_fd_sc_hd__decap_3
XFILLER_0_69 vccd1 vssd1 vccd1 vssd1 sky130_ef_sc_hd__decap_12
XTAP_TAPCELL_ROW_171_1022 vssd1 vccd1 sky130_fd_sc_hd__tapvpwrvgnd_1
XTAP_TAPCELL_ROW_171_1011 vssd1 vccd1 sky130_fd_sc_hd__tapvpwrvgnd_1
XFILLER_31_1013 vccd1 vssd1 vccd1 vssd1 sky130_ef_sc_hd__decap_12
XFILLER_171_966 vssd1 vssd1 vccd1 vccd1 sky130_fd_sc_hd__decap_8
XFILLER_171_911 vssd1 vssd1 vccd1 vccd1 sky130_fd_sc_hd__fill_2
XTAP_TAPCELL_ROW_171_1033 vssd1 vccd1 sky130_fd_sc_hd__tapvpwrvgnd_1
XFILLER_170_421 vccd1 vssd1 vccd1 vssd1 sky130_ef_sc_hd__decap_12
XFILLER_9_1025 vccd1 vssd1 vccd1 vssd1 sky130_ef_sc_hd__decap_12
XFILLER_43_3 vccd1 vssd1 vccd1 vssd1 sky130_ef_sc_hd__decap_12
XFILLER_6_461 vccd1 vssd1 vccd1 vssd1 sky130_ef_sc_hd__decap_12
XFILLER_100_15 vccd1 vssd1 vccd1 vssd1 sky130_ef_sc_hd__decap_12
XFILLER_60_19 vssd1 vssd1 vccd1 vccd1 sky130_fd_sc_hd__decap_8
XPHY_EDGE_ROW_118_3_Right_123 vssd1 vssd1 vccd1 vccd1 sky130_fd_sc_hd__decap_3
XFILLER_69_39 vssd1 vssd1 vccd1 vccd1 sky130_fd_sc_hd__decap_8
XFILLER_0_659 vssd1 vssd1 vccd1 vccd1 sky130_fd_sc_hd__fill_2
XPHY_EDGE_ROW_54_3_Left_391 vssd1 vssd1 vccd1 vccd1 sky130_fd_sc_hd__decap_3
XANTENNA_input102_A io_west_in[11] vssd1 vssd1 vccd1 vccd1 sky130_fd_sc_hd__diode_2
XPHY_EDGE_ROW_129_1_Right_625 vssd1 vssd1 vccd1 vccd1 sky130_fd_sc_hd__decap_3
XFILLER_54_1013 vccd1 vssd1 vccd1 vssd1 sky130_ef_sc_hd__decap_12
XFILLER_50_41 vssd1 vssd1 vccd1 vccd1 sky130_fd_sc_hd__decap_8
XFILLER_166_41 vssd1 vssd1 vccd1 vccd1 sky130_fd_sc_hd__decap_8
XFILLER_3_497 vssd1 vssd1 vccd1 vccd1 sky130_fd_sc_hd__decap_6
XPHY_EDGE_ROW_91_1_Right_587 vssd1 vssd1 vccd1 vccd1 sky130_fd_sc_hd__decap_3
XFILLER_171_785 vssd1 vssd1 vccd1 vccd1 sky130_fd_sc_hd__decap_8
XFILLER_170_251 vssd1 vssd1 vccd1 vccd1 sky130_fd_sc_hd__fill_1
XFILLER_77_1013 vccd1 vssd1 vccd1 vssd1 sky130_ef_sc_hd__decap_12
XFILLER_111_47 vssd1 vssd1 vccd1 vccd1 sky130_fd_sc_hd__decap_3
XFILLER_55_19 vccd1 vssd1 vccd1 vssd1 sky130_ef_sc_hd__decap_12
XFILLER_171_1009 vccd1 vssd1 vccd1 vssd1 sky130_ef_sc_hd__decap_12
XPHY_EDGE_ROW_119_3_Right_124 vssd1 vssd1 vccd1 vccd1 sky130_fd_sc_hd__decap_3
XFILLER_84_1039 vssd1 vssd1 vccd1 vccd1 sky130_fd_sc_hd__decap_8
XFILLER_0_412 vssd1 vssd1 vccd1 vccd1 sky130_fd_sc_hd__decap_8
XFILLER_5_729 vccd1 vssd1 vccd1 vssd1 sky130_ef_sc_hd__decap_12
XTAP_TAPCELL_ROW_4_773 vssd1 vccd1 sky130_fd_sc_hd__tapvpwrvgnd_1
XTAP_TAPCELL_ROW_4_762 vssd1 vccd1 sky130_fd_sc_hd__tapvpwrvgnd_1
XFILLER_0_489 vssd1 vssd1 vccd1 vccd1 sky130_fd_sc_hd__fill_2
XFILLER_169_373 vccd1 vssd1 vccd1 vssd1 sky130_ef_sc_hd__decap_12
XFILLER_6_57 vccd1 vssd1 vccd1 vssd1 sky130_ef_sc_hd__decap_12
XFILLER_3_261 vccd1 vssd1 vccd1 vssd1 sky130_ef_sc_hd__decap_12
XPHY_EDGE_ROW_92_1_Right_588 vssd1 vssd1 vccd1 vccd1 sky130_fd_sc_hd__decap_3
XPHY_EDGE_ROW_6_Right_6 vssd1 vssd1 vccd1 vccd1 sky130_fd_sc_hd__decap_3
XFILLER_131_1037 vssd1 vssd1 vccd1 vccd1 sky130_fd_sc_hd__decap_6
XTAP_TAPCELL_ROW_104_3_1088 vssd1 vccd1 sky130_fd_sc_hd__tapvpwrvgnd_1
XFILLER_66_29 vccd1 vssd1 vccd1 vssd1 sky130_ef_sc_hd__decap_12
XTAP_TAPCELL_ROW_1_710 vssd1 vccd1 sky130_fd_sc_hd__tapvpwrvgnd_1
XTAP_TAPCELL_ROW_158_3_1115 vssd1 vccd1 sky130_fd_sc_hd__tapvpwrvgnd_1
XFILLER_110_3 vccd1 vssd1 vccd1 vssd1 sky130_ef_sc_hd__decap_12
XFILLER_31_21 vccd1 vssd1 vccd1 vssd1 sky130_ef_sc_hd__decap_12
Xinput110 io_west_in[19] vssd1 vssd1 vccd1 vccd1 input110/X sky130_fd_sc_hd__clkbuf_4
XPHY_EDGE_ROW_51_3_Right_56 vssd1 vssd1 vccd1 vccd1 sky130_fd_sc_hd__decap_3
XFILLER_0_231 vssd1 vssd1 vccd1 vccd1 sky130_fd_sc_hd__decap_8
XFILLER_0_253 vssd1 vssd1 vccd1 vccd1 sky130_fd_sc_hd__fill_2
XPHY_EDGE_ROW_54_1_Right_550 vssd1 vssd1 vccd1 vccd1 sky130_fd_sc_hd__decap_3
XFILLER_1_721 vssd1 vssd1 vccd1 vccd1 sky130_fd_sc_hd__decap_6
XFILLER_1_765 vccd1 vssd1 vccd1 vssd1 sky130_ef_sc_hd__decap_12
XFILLER_5_559 vssd1 vssd1 vccd1 vccd1 sky130_fd_sc_hd__fill_1
XTAP_TAPCELL_ROW_130_3_1101 vssd1 vccd1 sky130_fd_sc_hd__tapvpwrvgnd_1
Xinput121 io_west_in[29] vssd1 vssd1 vccd1 vccd1 input121/X sky130_fd_sc_hd__clkbuf_2
XANTENNA_input30_A io_east_in[4] vssd1 vssd1 vccd1 vccd1 sky130_fd_sc_hd__diode_2
Xinput132 le_clk vssd1 vssd1 vccd1 vccd1 input132/X sky130_fd_sc_hd__buf_12
XFILLER_169_181 vccd1 vssd1 vccd1 vssd1 sky130_ef_sc_hd__decap_12
XFILLER_108_1039 vssd1 vssd1 vccd1 vccd1 sky130_fd_sc_hd__decap_8
XPHY_EDGE_ROW_17_3_Left_354 vssd1 vssd1 vccd1 vccd1 sky130_fd_sc_hd__decap_3
XTAP_TAPCELL_ROW_96_3_1084 vssd1 vccd1 sky130_fd_sc_hd__tapvpwrvgnd_1
XFILLER_154_1037 vssd1 vssd1 vccd1 vccd1 sky130_fd_sc_hd__fill_1
XFILLER_4_581 vssd1 vssd1 vccd1 vccd1 sky130_fd_sc_hd__decap_6
XPHY_EDGE_ROW_93_1_Right_589 vssd1 vssd1 vccd1 vccd1 sky130_fd_sc_hd__decap_3
XTAP_TAPCELL_ROW_6_824 vssd1 vccd1 sky130_fd_sc_hd__tapvpwrvgnd_1
XTAP_TAPCELL_ROW_6_802 vssd1 vccd1 sky130_fd_sc_hd__tapvpwrvgnd_1
XTAP_TAPCELL_ROW_6_813 vssd1 vccd1 sky130_fd_sc_hd__tapvpwrvgnd_1
XPHY_EDGE_ROW_82_3_Left_419 vssd1 vssd1 vccd1 vccd1 sky130_fd_sc_hd__decap_3
XFILLER_93_27 vccd1 vssd1 vccd1 vssd1 sky130_ef_sc_hd__decap_12
XTAP_TAPCELL_ROW_38_3_1055 vssd1 vccd1 sky130_fd_sc_hd__tapvpwrvgnd_1
XFILLER_167_641 vssd1 vssd1 vccd1 vccd1 sky130_fd_sc_hd__decap_3
XFILLER_158_3 vccd1 vssd1 vccd1 vssd1 sky130_ef_sc_hd__decap_12
XFILLER_167_685 vccd1 vssd1 vccd1 vssd1 sky130_ef_sc_hd__decap_12
XFILLER_6_813 vccd1 vssd1 vccd1 vssd1 sky130_ef_sc_hd__decap_12
XPHY_EDGE_ROW_55_1_Right_551 vssd1 vssd1 vccd1 vccd1 sky130_fd_sc_hd__decap_3
XANTENNA_input78_A io_south_in[19] vssd1 vssd1 vccd1 vccd1 sky130_fd_sc_hd__diode_2
XTAP_TAPCELL_ROW_10_3_1041 vssd1 vccd1 sky130_fd_sc_hd__tapvpwrvgnd_1
XFILLER_3_1009 vccd1 vssd1 vccd1 vssd1 sky130_ef_sc_hd__decap_12
XFILLER_3_69 vccd1 vssd1 vccd1 vssd1 sky130_ef_sc_hd__decap_12
XPHY_EDGE_ROW_2_Left_174 vssd1 vssd1 vccd1 vccd1 sky130_fd_sc_hd__decap_3
XFILLER_1_573 vccd1 vssd1 vccd1 vssd1 sky130_ef_sc_hd__decap_12
XPHY_EDGE_ROW_119_1_Left_290 vssd1 vssd1 vccd1 vccd1 sky130_fd_sc_hd__decap_3
XFILLER_121_1025 vccd1 vssd1 vccd1 vssd1 sky130_ef_sc_hd__decap_12
XPHY_EDGE_ROW_138_1_Left_309 vssd1 vssd1 vccd1 vccd1 sky130_fd_sc_hd__decap_3
XFILLER_73_3 vccd1 vssd1 vccd1 vssd1 sky130_ef_sc_hd__decap_12
XFILLER_103_15 vccd1 vssd1 vccd1 vssd1 sky130_ef_sc_hd__decap_12
XFILLER_41_1037 vssd1 vssd1 vccd1 vccd1 sky130_fd_sc_hd__decap_8
XFILLER_88_27 vssd1 vssd1 vccd1 vccd1 sky130_fd_sc_hd__fill_1
XANTENNA_input132_A le_clk vssd1 vssd1 vccd1 vccd1 sky130_fd_sc_hd__diode_2
XFILLER_168_961 vccd1 vssd1 vccd1 vssd1 sky130_ef_sc_hd__decap_12
XFILLER_144_1047 vssd1 vssd1 vccd1 vccd1 sky130_fd_sc_hd__fill_2
XFILLER_144_1025 vccd1 vssd1 vccd1 vssd1 sky130_ef_sc_hd__decap_12
XFILLER_18_1039 vssd1 vssd1 vccd1 vccd1 sky130_fd_sc_hd__decap_8
XFILLER_170_669 vccd1 vssd1 vccd1 vssd1 sky130_ef_sc_hd__decap_12
XFILLER_64_1037 vssd1 vssd1 vccd1 vccd1 sky130_fd_sc_hd__fill_1
XPHY_EDGE_ROW_56_1_Right_552 vssd1 vssd1 vccd1 vccd1 sky130_fd_sc_hd__decap_3
XPHY_EDGE_ROW_14_3_Right_19 vssd1 vssd1 vccd1 vccd1 sky130_fd_sc_hd__decap_3
XFILLER_2_893 vccd1 vssd1 vccd1 vssd1 sky130_ef_sc_hd__decap_12
Xoutput200 output200/A vssd1 vssd1 vccd1 vccd1 io_north_out[9] sky130_fd_sc_hd__buf_2
XTAP_TAPCELL_ROW_169_977 vssd1 vccd1 sky130_fd_sc_hd__tapvpwrvgnd_1
XTAP_TAPCELL_ROW_169_966 vssd1 vccd1 sky130_fd_sc_hd__tapvpwrvgnd_1
Xoutput233 output233/A vssd1 vssd1 vccd1 vccd1 io_west_out[0] sky130_fd_sc_hd__buf_2
Xoutput244 output244/A vssd1 vssd1 vccd1 vccd1 io_west_out[1] sky130_fd_sc_hd__buf_2