* NGSPICE file created from fpgacell.ext - technology: sky130A

* Black-box entry subcircuit for sky130_fd_sc_hd__a21bo_1 abstract view
.subckt sky130_fd_sc_hd__a21bo_1 A1 A2 B1_N VGND VNB VPB VPWR X
.ends

* Black-box entry subcircuit for sky130_fd_sc_hd__o2111a_1 abstract view
.subckt sky130_fd_sc_hd__o2111a_1 A1 A2 B1 C1 D1 VGND VNB VPB VPWR X
.ends

* Black-box entry subcircuit for sky130_fd_sc_hd__dfstp_1 abstract view
.subckt sky130_fd_sc_hd__dfstp_1 CLK D SET_B VGND VNB VPB VPWR Q
.ends

* Black-box entry subcircuit for sky130_fd_sc_hd__tapvpwrvgnd_1 abstract view
.subckt sky130_fd_sc_hd__tapvpwrvgnd_1 VGND VPWR
.ends

* Black-box entry subcircuit for sky130_fd_sc_hd__fill_2 abstract view
.subckt sky130_fd_sc_hd__fill_2 VGND VNB VPB VPWR
.ends

* Black-box entry subcircuit for sky130_fd_sc_hd__diode_2 abstract view
.subckt sky130_fd_sc_hd__diode_2 DIODE VGND VNB VPB VPWR
.ends

* Black-box entry subcircuit for sky130_fd_sc_hd__fill_1 abstract view
.subckt sky130_fd_sc_hd__fill_1 VGND VNB VPB VPWR
.ends

* Black-box entry subcircuit for sky130_fd_sc_hd__mux2_1 abstract view
.subckt sky130_fd_sc_hd__mux2_1 A0 A1 S VGND VNB VPB VPWR X
.ends

* Black-box entry subcircuit for sky130_fd_sc_hd__o21ai_1 abstract view
.subckt sky130_fd_sc_hd__o21ai_1 A1 A2 B1 VGND VNB VPB VPWR Y
.ends

* Black-box entry subcircuit for sky130_fd_sc_hd__dlymetal6s2s_1 abstract view
.subckt sky130_fd_sc_hd__dlymetal6s2s_1 A VGND VNB VPB VPWR X
.ends

* Black-box entry subcircuit for sky130_fd_sc_hd__buf_2 abstract view
.subckt sky130_fd_sc_hd__buf_2 A VGND VNB VPB VPWR X
.ends

* Black-box entry subcircuit for sky130_fd_sc_hd__clkbuf_2 abstract view
.subckt sky130_fd_sc_hd__clkbuf_2 A VGND VNB VPB VPWR X
.ends

* Black-box entry subcircuit for sky130_fd_sc_hd__inv_2 abstract view
.subckt sky130_fd_sc_hd__inv_2 A VGND VNB VPB VPWR Y
.ends

* Black-box entry subcircuit for sky130_fd_sc_hd__nand2b_1 abstract view
.subckt sky130_fd_sc_hd__nand2b_1 A_N B VGND VNB VPB VPWR Y
.ends

* Black-box entry subcircuit for sky130_fd_sc_hd__a21o_1 abstract view
.subckt sky130_fd_sc_hd__a21o_1 A1 A2 B1 VGND VNB VPB VPWR X
.ends

* Black-box entry subcircuit for sky130_fd_sc_hd__dfstp_2 abstract view
.subckt sky130_fd_sc_hd__dfstp_2 CLK D SET_B VGND VNB VPB VPWR Q
.ends

* Black-box entry subcircuit for sky130_fd_sc_hd__decap_3 abstract view
.subckt sky130_fd_sc_hd__decap_3 VGND VNB VPB VPWR
.ends

* Black-box entry subcircuit for sky130_fd_sc_hd__o221a_1 abstract view
.subckt sky130_fd_sc_hd__o221a_1 A1 A2 B1 B2 C1 VGND VNB VPB VPWR X
.ends

* Black-box entry subcircuit for sky130_fd_sc_hd__a2bb2o_2 abstract view
.subckt sky130_fd_sc_hd__a2bb2o_2 A1_N A2_N B1 B2 VGND VNB VPB VPWR X
.ends

* Black-box entry subcircuit for sky130_fd_sc_hd__a22o_1 abstract view
.subckt sky130_fd_sc_hd__a22o_1 A1 A2 B1 B2 VGND VNB VPB VPWR X
.ends

* Black-box entry subcircuit for sky130_fd_sc_hd__nor2_1 abstract view
.subckt sky130_fd_sc_hd__nor2_1 A B VGND VNB VPB VPWR Y
.ends

* Black-box entry subcircuit for sky130_fd_sc_hd__nand2_1 abstract view
.subckt sky130_fd_sc_hd__nand2_1 A B VGND VNB VPB VPWR Y
.ends

* Black-box entry subcircuit for sky130_fd_sc_hd__mux4_1 abstract view
.subckt sky130_fd_sc_hd__mux4_1 A0 A1 A2 A3 S0 S1 VGND VNB VPB VPWR X
.ends

* Black-box entry subcircuit for sky130_fd_sc_hd__o21a_1 abstract view
.subckt sky130_fd_sc_hd__o21a_1 A1 A2 B1 VGND VNB VPB VPWR X
.ends

* Black-box entry subcircuit for sky130_fd_sc_hd__dlygate4sd3_1 abstract view
.subckt sky130_fd_sc_hd__dlygate4sd3_1 A VGND VNB VPB VPWR X
.ends

* Black-box entry subcircuit for sky130_fd_sc_hd__and3_1 abstract view
.subckt sky130_fd_sc_hd__and3_1 A B C VGND VNB VPB VPWR X
.ends

* Black-box entry subcircuit for sky130_fd_sc_hd__o22a_1 abstract view
.subckt sky130_fd_sc_hd__o22a_1 A1 A2 B1 B2 VGND VNB VPB VPWR X
.ends

* Black-box entry subcircuit for sky130_fd_sc_hd__a31o_1 abstract view
.subckt sky130_fd_sc_hd__a31o_1 A1 A2 A3 B1 VGND VNB VPB VPWR X
.ends

* Black-box entry subcircuit for sky130_fd_sc_hd__o32a_1 abstract view
.subckt sky130_fd_sc_hd__o32a_1 A1 A2 A3 B1 B2 VGND VNB VPB VPWR X
.ends

* Black-box entry subcircuit for sky130_fd_sc_hd__a221o_1 abstract view
.subckt sky130_fd_sc_hd__a221o_1 A1 A2 B1 B2 C1 VGND VNB VPB VPWR X
.ends

* Black-box entry subcircuit for sky130_fd_sc_hd__dfrtp_1 abstract view
.subckt sky130_fd_sc_hd__dfrtp_1 CLK D RESET_B VGND VNB VPB VPWR Q
.ends

* Black-box entry subcircuit for sky130_fd_sc_hd__or2_2 abstract view
.subckt sky130_fd_sc_hd__or2_2 A B VGND VNB VPB VPWR X
.ends

* Black-box entry subcircuit for sky130_fd_sc_hd__nand2_2 abstract view
.subckt sky130_fd_sc_hd__nand2_2 A B VGND VNB VPB VPWR Y
.ends

* Black-box entry subcircuit for sky130_fd_sc_hd__decap_4 abstract view
.subckt sky130_fd_sc_hd__decap_4 VGND VNB VPB VPWR
.ends

* Black-box entry subcircuit for sky130_fd_sc_hd__a211o_1 abstract view
.subckt sky130_fd_sc_hd__a211o_1 A1 A2 B1 C1 VGND VNB VPB VPWR X
.ends

* Black-box entry subcircuit for sky130_fd_sc_hd__a211oi_1 abstract view
.subckt sky130_fd_sc_hd__a211oi_1 A1 A2 B1 C1 VGND VNB VPB VPWR Y
.ends

* Black-box entry subcircuit for sky130_fd_sc_hd__xor2_2 abstract view
.subckt sky130_fd_sc_hd__xor2_2 A B VGND VNB VPB VPWR X
.ends

* Black-box entry subcircuit for sky130_fd_sc_hd__decap_8 abstract view
.subckt sky130_fd_sc_hd__decap_8 VGND VNB VPB VPWR
.ends

* Black-box entry subcircuit for sky130_fd_sc_hd__nor3_1 abstract view
.subckt sky130_fd_sc_hd__nor3_1 A B C VGND VNB VPB VPWR Y
.ends

* Black-box entry subcircuit for sky130_ef_sc_hd__decap_12 abstract view
.subckt sky130_ef_sc_hd__decap_12 VPWR VGND VPB VNB
.ends

* Black-box entry subcircuit for sky130_fd_sc_hd__dfrtp_2 abstract view
.subckt sky130_fd_sc_hd__dfrtp_2 CLK D RESET_B VGND VNB VPB VPWR Q
.ends

* Black-box entry subcircuit for sky130_fd_sc_hd__nor2_2 abstract view
.subckt sky130_fd_sc_hd__nor2_2 A B VGND VNB VPB VPWR Y
.ends

* Black-box entry subcircuit for sky130_fd_sc_hd__o211a_1 abstract view
.subckt sky130_fd_sc_hd__o211a_1 A1 A2 B1 C1 VGND VNB VPB VPWR X
.ends

* Black-box entry subcircuit for sky130_fd_sc_hd__a21boi_1 abstract view
.subckt sky130_fd_sc_hd__a21boi_1 A1 A2 B1_N VGND VNB VPB VPWR Y
.ends

* Black-box entry subcircuit for sky130_fd_sc_hd__a21oi_1 abstract view
.subckt sky130_fd_sc_hd__a21oi_1 A1 A2 B1 VGND VNB VPB VPWR Y
.ends

* Black-box entry subcircuit for sky130_fd_sc_hd__a32o_1 abstract view
.subckt sky130_fd_sc_hd__a32o_1 A1 A2 A3 B1 B2 VGND VNB VPB VPWR X
.ends

* Black-box entry subcircuit for sky130_fd_sc_hd__o31a_1 abstract view
.subckt sky130_fd_sc_hd__o31a_1 A1 A2 A3 B1 VGND VNB VPB VPWR X
.ends

* Black-box entry subcircuit for sky130_fd_sc_hd__or3_1 abstract view
.subckt sky130_fd_sc_hd__or3_1 A B C VGND VNB VPB VPWR X
.ends

* Black-box entry subcircuit for sky130_fd_sc_hd__and2b_1 abstract view
.subckt sky130_fd_sc_hd__and2b_1 A_N B VGND VNB VPB VPWR X
.ends

* Black-box entry subcircuit for sky130_fd_sc_hd__xnor2_1 abstract view
.subckt sky130_fd_sc_hd__xnor2_1 A B VGND VNB VPB VPWR Y
.ends

* Black-box entry subcircuit for sky130_fd_sc_hd__and4bb_1 abstract view
.subckt sky130_fd_sc_hd__and4bb_1 A_N B_N C D VGND VNB VPB VPWR X
.ends

* Black-box entry subcircuit for sky130_fd_sc_hd__and2_2 abstract view
.subckt sky130_fd_sc_hd__and2_2 A B VGND VNB VPB VPWR X
.ends

* Black-box entry subcircuit for sky130_fd_sc_hd__and2_1 abstract view
.subckt sky130_fd_sc_hd__and2_1 A B VGND VNB VPB VPWR X
.ends

* Black-box entry subcircuit for sky130_fd_sc_hd__or2_1 abstract view
.subckt sky130_fd_sc_hd__or2_1 A B VGND VNB VPB VPWR X
.ends

* Black-box entry subcircuit for sky130_fd_sc_hd__and3b_1 abstract view
.subckt sky130_fd_sc_hd__and3b_1 A_N B C VGND VNB VPB VPWR X
.ends

* Black-box entry subcircuit for sky130_fd_sc_hd__decap_6 abstract view
.subckt sky130_fd_sc_hd__decap_6 VGND VNB VPB VPWR
.ends

* Black-box entry subcircuit for sky130_fd_sc_hd__and2b_2 abstract view
.subckt sky130_fd_sc_hd__and2b_2 A_N B VGND VNB VPB VPWR X
.ends

* Black-box entry subcircuit for sky130_fd_sc_hd__clkbuf_8 abstract view
.subckt sky130_fd_sc_hd__clkbuf_8 A VGND VNB VPB VPWR X
.ends

* Black-box entry subcircuit for sky130_fd_sc_hd__and4b_1 abstract view
.subckt sky130_fd_sc_hd__and4b_1 A_N B C D VGND VNB VPB VPWR X
.ends

* Black-box entry subcircuit for sky130_fd_sc_hd__clkinvlp_4 abstract view
.subckt sky130_fd_sc_hd__clkinvlp_4 A VGND VNB VPB VPWR Y
.ends

* Black-box entry subcircuit for sky130_fd_sc_hd__o211a_2 abstract view
.subckt sky130_fd_sc_hd__o211a_2 A1 A2 B1 C1 VGND VNB VPB VPWR X
.ends

* Black-box entry subcircuit for sky130_fd_sc_hd__o22ai_1 abstract view
.subckt sky130_fd_sc_hd__o22ai_1 A1 A2 B1 B2 VGND VNB VPB VPWR Y
.ends

* Black-box entry subcircuit for sky130_fd_sc_hd__o311a_1 abstract view
.subckt sky130_fd_sc_hd__o311a_1 A1 A2 A3 B1 C1 VGND VNB VPB VPWR X
.ends

* Black-box entry subcircuit for sky130_fd_sc_hd__clkbuf_4 abstract view
.subckt sky130_fd_sc_hd__clkbuf_4 A VGND VNB VPB VPWR X
.ends

* Black-box entry subcircuit for sky130_fd_sc_hd__o31ai_2 abstract view
.subckt sky130_fd_sc_hd__o31ai_2 A1 A2 A3 B1 VGND VNB VPB VPWR Y
.ends

* Black-box entry subcircuit for sky130_fd_sc_hd__inv_8 abstract view
.subckt sky130_fd_sc_hd__inv_8 A VGND VNB VPB VPWR Y
.ends

* Black-box entry subcircuit for sky130_fd_sc_hd__mux2_2 abstract view
.subckt sky130_fd_sc_hd__mux2_2 A0 A1 S VGND VNB VPB VPWR X
.ends

* Black-box entry subcircuit for sky130_fd_sc_hd__o31a_2 abstract view
.subckt sky130_fd_sc_hd__o31a_2 A1 A2 A3 B1 VGND VNB VPB VPWR X
.ends

* Black-box entry subcircuit for sky130_fd_sc_hd__a211o_2 abstract view
.subckt sky130_fd_sc_hd__a211o_2 A1 A2 B1 C1 VGND VNB VPB VPWR X
.ends

* Black-box entry subcircuit for sky130_fd_sc_hd__inv_6 abstract view
.subckt sky130_fd_sc_hd__inv_6 A VGND VNB VPB VPWR Y
.ends

* Black-box entry subcircuit for sky130_fd_sc_hd__clkinv_2 abstract view
.subckt sky130_fd_sc_hd__clkinv_2 A VGND VNB VPB VPWR Y
.ends

* Black-box entry subcircuit for sky130_fd_sc_hd__o22a_2 abstract view
.subckt sky130_fd_sc_hd__o22a_2 A1 A2 B1 B2 VGND VNB VPB VPWR X
.ends

* Black-box entry subcircuit for sky130_fd_sc_hd__a2bb2o_1 abstract view
.subckt sky130_fd_sc_hd__a2bb2o_1 A1_N A2_N B1 B2 VGND VNB VPB VPWR X
.ends

* Black-box entry subcircuit for sky130_fd_sc_hd__clkbuf_16 abstract view
.subckt sky130_fd_sc_hd__clkbuf_16 A VGND VNB VPB VPWR X
.ends

* Black-box entry subcircuit for sky130_fd_sc_hd__mux4_2 abstract view
.subckt sky130_fd_sc_hd__mux4_2 A0 A1 A2 A3 S0 S1 VGND VNB VPB VPWR X
.ends

* Black-box entry subcircuit for sky130_fd_sc_hd__a22o_2 abstract view
.subckt sky130_fd_sc_hd__a22o_2 A1 A2 B1 B2 VGND VNB VPB VPWR X
.ends

* Black-box entry subcircuit for sky130_fd_sc_hd__nand2b_2 abstract view
.subckt sky130_fd_sc_hd__nand2b_2 A_N B VGND VNB VPB VPWR Y
.ends

* Black-box entry subcircuit for sky130_fd_sc_hd__inv_12 abstract view
.subckt sky130_fd_sc_hd__inv_12 A VGND VNB VPB VPWR Y
.ends

* Black-box entry subcircuit for sky130_fd_sc_hd__bufinv_16 abstract view
.subckt sky130_fd_sc_hd__bufinv_16 A VGND VNB VPB VPWR Y
.ends

* Black-box entry subcircuit for sky130_fd_sc_hd__and4_1 abstract view
.subckt sky130_fd_sc_hd__and4_1 A B C D VGND VNB VPB VPWR X
.ends

* Black-box entry subcircuit for sky130_fd_sc_hd__a31oi_1 abstract view
.subckt sky130_fd_sc_hd__a31oi_1 A1 A2 A3 B1 VGND VNB VPB VPWR Y
.ends

* Black-box entry subcircuit for sky130_fd_sc_hd__inv_4 abstract view
.subckt sky130_fd_sc_hd__inv_4 A VGND VNB VPB VPWR Y
.ends

* Black-box entry subcircuit for sky130_fd_sc_hd__or4b_1 abstract view
.subckt sky130_fd_sc_hd__or4b_1 A B C D_N VGND VNB VPB VPWR X
.ends

* Black-box entry subcircuit for sky130_fd_sc_hd__a41o_1 abstract view
.subckt sky130_fd_sc_hd__a41o_1 A1 A2 A3 A4 B1 VGND VNB VPB VPWR X
.ends

* Black-box entry subcircuit for sky130_fd_sc_hd__clkinv_8 abstract view
.subckt sky130_fd_sc_hd__clkinv_8 A VGND VNB VPB VPWR Y
.ends

* Black-box entry subcircuit for sky130_fd_sc_hd__o2111ai_1 abstract view
.subckt sky130_fd_sc_hd__o2111ai_1 A1 A2 B1 C1 D1 VGND VNB VPB VPWR Y
.ends

* Black-box entry subcircuit for sky130_fd_sc_hd__nand4_1 abstract view
.subckt sky130_fd_sc_hd__nand4_1 A B C D VGND VNB VPB VPWR Y
.ends

* Black-box entry subcircuit for sky130_fd_sc_hd__or4bb_1 abstract view
.subckt sky130_fd_sc_hd__or4bb_1 A B C_N D_N VGND VNB VPB VPWR X
.ends

* Black-box entry subcircuit for sky130_fd_sc_hd__or3b_1 abstract view
.subckt sky130_fd_sc_hd__or3b_1 A B C_N VGND VNB VPB VPWR X
.ends

* Black-box entry subcircuit for sky130_fd_sc_hd__a311o_1 abstract view
.subckt sky130_fd_sc_hd__a311o_1 A1 A2 A3 B1 C1 VGND VNB VPB VPWR X
.ends

* Black-box entry subcircuit for sky130_fd_sc_hd__or4_1 abstract view
.subckt sky130_fd_sc_hd__or4_1 A B C D VGND VNB VPB VPWR X
.ends

* Black-box entry subcircuit for sky130_fd_sc_hd__clkinv_1 abstract view
.subckt sky130_fd_sc_hd__clkinv_1 A VGND VNB VPB VPWR Y
.ends

* Black-box entry subcircuit for sky130_fd_sc_hd__o2bb2a_1 abstract view
.subckt sky130_fd_sc_hd__o2bb2a_1 A1_N A2_N B1 B2 VGND VNB VPB VPWR X
.ends

* Black-box entry subcircuit for sky130_fd_sc_hd__buf_1 abstract view
.subckt sky130_fd_sc_hd__buf_1 A VGND VNB VPB VPWR X
.ends

* Black-box entry subcircuit for sky130_fd_sc_hd__a21boi_4 abstract view
.subckt sky130_fd_sc_hd__a21boi_4 A1 A2 B1_N VGND VNB VPB VPWR Y
.ends

* Black-box entry subcircuit for sky130_fd_sc_hd__o32a_2 abstract view
.subckt sky130_fd_sc_hd__o32a_2 A1 A2 A3 B1 B2 VGND VNB VPB VPWR X
.ends

* Black-box entry subcircuit for sky130_fd_sc_hd__clkbuf_1 abstract view
.subckt sky130_fd_sc_hd__clkbuf_1 A VGND VNB VPB VPWR X
.ends

* Black-box entry subcircuit for sky130_fd_sc_hd__nand2_4 abstract view
.subckt sky130_fd_sc_hd__nand2_4 A B VGND VNB VPB VPWR Y
.ends

* Black-box entry subcircuit for sky130_fd_sc_hd__a21oi_2 abstract view
.subckt sky130_fd_sc_hd__a21oi_2 A1 A2 B1 VGND VNB VPB VPWR Y
.ends

* Black-box entry subcircuit for sky130_fd_sc_hd__nand3_1 abstract view
.subckt sky130_fd_sc_hd__nand3_1 A B C VGND VNB VPB VPWR Y
.ends

* Black-box entry subcircuit for sky130_fd_sc_hd__a22oi_1 abstract view
.subckt sky130_fd_sc_hd__a22oi_1 A1 A2 B1 B2 VGND VNB VPB VPWR Y
.ends

* Black-box entry subcircuit for sky130_fd_sc_hd__a2111oi_1 abstract view
.subckt sky130_fd_sc_hd__a2111oi_1 A1 A2 B1 C1 D1 VGND VNB VPB VPWR Y
.ends

* Black-box entry subcircuit for sky130_fd_sc_hd__a22oi_2 abstract view
.subckt sky130_fd_sc_hd__a22oi_2 A1 A2 B1 B2 VGND VNB VPB VPWR Y
.ends

* Black-box entry subcircuit for sky130_fd_sc_hd__a22oi_4 abstract view
.subckt sky130_fd_sc_hd__a22oi_4 A1 A2 B1 B2 VGND VNB VPB VPWR Y
.ends

* Black-box entry subcircuit for sky130_fd_sc_hd__a221oi_1 abstract view
.subckt sky130_fd_sc_hd__a221oi_1 A1 A2 B1 B2 C1 VGND VNB VPB VPWR Y
.ends

* Black-box entry subcircuit for sky130_fd_sc_hd__o21ba_1 abstract view
.subckt sky130_fd_sc_hd__o21ba_1 A1 A2 B1_N VGND VNB VPB VPWR X
.ends

* Black-box entry subcircuit for sky130_fd_sc_hd__buf_4 abstract view
.subckt sky130_fd_sc_hd__buf_4 A VGND VNB VPB VPWR X
.ends

* Black-box entry subcircuit for sky130_fd_sc_hd__or3b_4 abstract view
.subckt sky130_fd_sc_hd__or3b_4 A B C_N VGND VNB VPB VPWR X
.ends

* Black-box entry subcircuit for sky130_fd_sc_hd__a21boi_2 abstract view
.subckt sky130_fd_sc_hd__a21boi_2 A1 A2 B1_N VGND VNB VPB VPWR Y
.ends

* Black-box entry subcircuit for sky130_fd_sc_hd__or3_4 abstract view
.subckt sky130_fd_sc_hd__or3_4 A B C VGND VNB VPB VPWR X
.ends

* Black-box entry subcircuit for sky130_fd_sc_hd__a211oi_2 abstract view
.subckt sky130_fd_sc_hd__a211oi_2 A1 A2 B1 C1 VGND VNB VPB VPWR Y
.ends

.subckt fpgacell CBeast_in[0] CBeast_in[10] CBeast_in[11] CBeast_in[12] CBeast_in[13]
+ CBeast_in[1] CBeast_in[2] CBeast_in[3] CBeast_in[4] CBeast_in[5] CBeast_in[6] CBeast_in[7]
+ CBeast_in[8] CBeast_in[9] CBeast_out[0] CBeast_out[10] CBeast_out[11] CBeast_out[12]
+ CBeast_out[13] CBeast_out[1] CBeast_out[2] CBeast_out[3] CBeast_out[4] CBeast_out[5]
+ CBeast_out[6] CBeast_out[7] CBeast_out[8] CBeast_out[9] CBnorth_in[0] CBnorth_in[10]
+ CBnorth_in[11] CBnorth_in[12] CBnorth_in[13] CBnorth_in[1] CBnorth_in[2] CBnorth_in[3]
+ CBnorth_in[4] CBnorth_in[5] CBnorth_in[6] CBnorth_in[7] CBnorth_in[8] CBnorth_in[9]
+ CBnorth_out[0] CBnorth_out[10] CBnorth_out[11] CBnorth_out[12] CBnorth_out[13] CBnorth_out[1]
+ CBnorth_out[2] CBnorth_out[3] CBnorth_out[4] CBnorth_out[5] CBnorth_out[6] CBnorth_out[7]
+ CBnorth_out[8] CBnorth_out[9] SBsouth_in[0] SBsouth_in[10] SBsouth_in[11] SBsouth_in[12]
+ SBsouth_in[13] SBsouth_in[1] SBsouth_in[2] SBsouth_in[3] SBsouth_in[4] SBsouth_in[5]
+ SBsouth_in[6] SBsouth_in[7] SBsouth_in[8] SBsouth_in[9] SBsouth_out[0] SBsouth_out[10]
+ SBsouth_out[11] SBsouth_out[12] SBsouth_out[13] SBsouth_out[1] SBsouth_out[2] SBsouth_out[3]
+ SBsouth_out[4] SBsouth_out[5] SBsouth_out[6] SBsouth_out[7] SBsouth_out[8] SBsouth_out[9]
+ SBwest_in[0] SBwest_in[10] SBwest_in[11] SBwest_in[12] SBwest_in[13] SBwest_in[1]
+ SBwest_in[2] SBwest_in[3] SBwest_in[4] SBwest_in[5] SBwest_in[6] SBwest_in[7] SBwest_in[8]
+ SBwest_in[9] SBwest_out[0] SBwest_out[10] SBwest_out[11] SBwest_out[12] SBwest_out[13]
+ SBwest_out[1] SBwest_out[2] SBwest_out[3] SBwest_out[4] SBwest_out[5] SBwest_out[6]
+ SBwest_out[7] SBwest_out[8] SBwest_out[9] clk config_data_in config_data_out config_en
+ le_clk le_en le_nrst nrst vccd1 vssd1
X_2037_ _1213_ SB0.route_sel\[105\] _0794_ vssd1 vssd1 vccd1 vccd1 _0795_ sky130_fd_sc_hd__a21bo_1
X_2106_ CB_1.config_dataA\[3\] _0851_ _0854_ _0861_ _0863_ vssd1 vssd1 vccd1 vccd1
+ _0864_ sky130_fd_sc_hd__o2111a_1
X_3086_ clknet_leaf_18_clk _0294_ net217 vssd1 vssd1 vccd1 vccd1 CB_1.config_dataA\[6\]
+ sky130_fd_sc_hd__dfstp_1
X_2939_ clknet_leaf_27_clk _0147_ net195 vssd1 vssd1 vccd1 vccd1 SB0.route_sel\[11\]
+ sky130_fd_sc_hd__dfstp_1
XTAP_TAPCELL_ROW_43_415 vssd1 vccd1 sky130_fd_sc_hd__tapvpwrvgnd_1
XTAP_TAPCELL_ROW_51_470 vssd1 vccd1 sky130_fd_sc_hd__tapvpwrvgnd_1
XFILLER_13_166 vssd1 vssd1 vccd1 vccd1 sky130_fd_sc_hd__fill_2
XANTENNA__3076__SET_B net228 vssd1 vssd1 vccd1 vccd1 sky130_fd_sc_hd__diode_2
XTAP_TAPCELL_ROW_8_192 vssd1 vccd1 sky130_fd_sc_hd__tapvpwrvgnd_1
XFILLER_51_239 vssd1 vssd1 vccd1 vccd1 sky130_fd_sc_hd__fill_1
X_2724_ net169 CB_0.config_dataA\[11\] net253 vssd1 vssd1 vccd1 vccd1 _0260_ sky130_fd_sc_hd__mux2_1
X_1606_ net174 _0367_ CB_0.config_dataA\[2\] vssd1 vssd1 vccd1 vccd1 _0368_ sky130_fd_sc_hd__o21ai_1
X_2655_ SB0.route_sel\[55\] SB0.route_sel\[54\] net258 vssd1 vssd1 vccd1 vccd1 _0191_
+ sky130_fd_sc_hd__mux2_1
XTAP_TAPCELL_ROW_57_507 vssd1 vccd1 sky130_fd_sc_hd__tapvpwrvgnd_1
Xfanout138 net140 vssd1 vssd1 vccd1 vccd1 net138 sky130_fd_sc_hd__dlymetal6s2s_1
Xfanout127 CB_0.le_outB vssd1 vssd1 vccd1 vccd1 net127 sky130_fd_sc_hd__buf_2
X_2586_ CB_1.config_dataB\[6\] net184 net263 vssd1 vssd1 vccd1 vccd1 _0122_ sky130_fd_sc_hd__mux2_1
Xfanout149 CB_1.config_dataA\[8\] vssd1 vssd1 vccd1 vccd1 net149 sky130_fd_sc_hd__clkbuf_2
X_1399_ SB0.route_sel\[71\] vssd1 vssd1 vccd1 vccd1 _1193_ sky130_fd_sc_hd__inv_2
X_1468_ net142 net143 vssd1 vssd1 vccd1 vccd1 _1262_ sky130_fd_sc_hd__nand2b_1
X_1537_ _1258_ _1329_ net9 vssd1 vssd1 vccd1 vccd1 _1331_ sky130_fd_sc_hd__a21o_1
X_3069_ clknet_leaf_9_clk _0277_ net209 vssd1 vssd1 vccd1 vccd1 CB_0.config_dataB\[9\]
+ sky130_fd_sc_hd__dfstp_2
XFILLER_27_225 vssd1 vssd1 vccd1 vccd1 sky130_fd_sc_hd__fill_2
XPHY_EDGE_ROW_19_Left_83 vssd1 vssd1 vccd1 vccd1 sky130_fd_sc_hd__decap_3
XANTENNA__1978__A2 _0359_ vssd1 vssd1 vccd1 vccd1 sky130_fd_sc_hd__diode_2
XANTENNA__2155__A2 _0816_ vssd1 vssd1 vccd1 vccd1 sky130_fd_sc_hd__diode_2
XANTENNA__1551__X _1345_ vssd1 vssd1 vccd1 vccd1 sky130_fd_sc_hd__diode_2
XANTENNA_clkbuf_leaf_31_clk_A clknet_2_0__leaf_clk vssd1 vssd1 vccd1 vccd1 sky130_fd_sc_hd__diode_2
XANTENNA__2091__A1 net127 vssd1 vssd1 vccd1 vccd1 sky130_fd_sc_hd__diode_2
XFILLER_41_283 vssd1 vssd1 vccd1 vccd1 sky130_fd_sc_hd__fill_1
X_2440_ SB0.route_sel\[106\] SB0.route_sel\[107\] vssd1 vssd1 vccd1 vccd1 _1137_ sky130_fd_sc_hd__nand2b_1
XFILLER_5_140 vssd1 vssd1 vccd1 vccd1 sky130_fd_sc_hd__fill_1
X_2371_ _1281_ _0377_ _0822_ vssd1 vssd1 vccd1 vccd1 _1092_ sky130_fd_sc_hd__o21ai_1
XTAP_TAPCELL_ROW_62_543 vssd1 vccd1 sky130_fd_sc_hd__tapvpwrvgnd_1
XANTENNA__2082__A1 net14 vssd1 vssd1 vccd1 vccd1 sky130_fd_sc_hd__diode_2
X_2707_ SB0.route_sel\[107\] SB0.route_sel\[106\] net268 vssd1 vssd1 vccd1 vccd1 _0243_
+ sky130_fd_sc_hd__mux2_1
X_2569_ net392 LE_1A.config_data\[9\] net259 vssd1 vssd1 vccd1 vccd1 _0105_ sky130_fd_sc_hd__mux2_1
X_2638_ SB0.route_sel\[38\] SB0.route_sel\[37\] net241 vssd1 vssd1 vccd1 vccd1 _0174_
+ sky130_fd_sc_hd__mux2_1
XANTENNA__1896__A1 net20 vssd1 vssd1 vccd1 vccd1 sky130_fd_sc_hd__diode_2
XPHY_EDGE_ROW_4_Left_68 vssd1 vssd1 vccd1 vccd1 sky130_fd_sc_hd__decap_3
XANTENNA__1820__A1 _0447_ vssd1 vssd1 vccd1 vccd1 sky130_fd_sc_hd__diode_2
XANTENNA__1584__B1 net4 vssd1 vssd1 vccd1 vccd1 sky130_fd_sc_hd__diode_2
XFILLER_38_309 vssd1 vssd1 vccd1 vccd1 sky130_fd_sc_hd__fill_1
XANTENNA__2128__A2 net128 vssd1 vssd1 vccd1 vccd1 sky130_fd_sc_hd__diode_2
XANTENNA_input55_A SBwest_in[8] vssd1 vssd1 vccd1 vccd1 sky130_fd_sc_hd__diode_2
XANTENNA_input10_X net10 vssd1 vssd1 vccd1 vccd1 sky130_fd_sc_hd__diode_2
XANTENNA__1722__A net128 vssd1 vssd1 vccd1 vccd1 sky130_fd_sc_hd__diode_2
X_1871_ LEI0.config_data\[38\] _0606_ _0620_ _1222_ _0632_ vssd1 vssd1 vccd1 vccd1
+ _0633_ sky130_fd_sc_hd__o221a_1
X_1940_ _0690_ _0698_ _0699_ CB_0.config_dataB\[2\] vssd1 vssd1 vccd1 vccd1 _0700_
+ sky130_fd_sc_hd__a2bb2o_2
X_2423_ SB0.route_sel\[19\] _1166_ _1168_ _1169_ vssd1 vssd1 vccd1 vccd1 _1126_ sky130_fd_sc_hd__a22o_1
X_2285_ CB_1.config_dataB\[15\] _1040_ vssd1 vssd1 vccd1 vccd1 _1041_ sky130_fd_sc_hd__nor2_1
X_2354_ _0500_ _1083_ _0501_ vssd1 vssd1 vccd1 vccd1 net65 sky130_fd_sc_hd__a21o_1
XFILLER_52_378 vssd1 vssd1 vccd1 vccd1 sky130_fd_sc_hd__fill_1
XANTENNA__1566__B1 net19 vssd1 vssd1 vccd1 vccd1 sky130_fd_sc_hd__diode_2
XANTENNA__1802__A1 net171 vssd1 vssd1 vccd1 vccd1 sky130_fd_sc_hd__diode_2
XANTENNA_fanout128_X net128 vssd1 vssd1 vccd1 vccd1 sky130_fd_sc_hd__diode_2
XANTENNA_input2_X net2 vssd1 vssd1 vccd1 vccd1 sky130_fd_sc_hd__diode_2
XFILLER_55_172 vssd1 vssd1 vccd1 vccd1 sky130_fd_sc_hd__fill_1
XTAP_TAPCELL_ROW_38_381 vssd1 vccd1 sky130_fd_sc_hd__tapvpwrvgnd_1
XANTENNA_input58_X net58 vssd1 vssd1 vccd1 vccd1 sky130_fd_sc_hd__diode_2
XFILLER_59_82 vssd1 vssd1 vccd1 vccd1 sky130_fd_sc_hd__fill_1
X_2070_ _0489_ _0826_ vssd1 vssd1 vccd1 vccd1 _0828_ sky130_fd_sc_hd__nand2_1
X_2972_ clknet_leaf_23_clk _0180_ net212 vssd1 vssd1 vccd1 vccd1 SB0.route_sel\[44\]
+ sky130_fd_sc_hd__dfstp_1
X_1785_ _0447_ _0391_ net172 vssd1 vssd1 vccd1 vccd1 _0547_ sky130_fd_sc_hd__mux2_1
X_1854_ _1321_ _1345_ _1221_ vssd1 vssd1 vccd1 vccd1 _0616_ sky130_fd_sc_hd__mux2_1
X_1923_ net27 net28 net16 net17 net167 net166 vssd1 vssd1 vccd1 vccd1 _0683_ sky130_fd_sc_hd__mux4_1
X_2406_ _1318_ _1114_ vssd1 vssd1 vccd1 vccd1 net100 sky130_fd_sc_hd__nor2_1
X_2337_ _1321_ net125 _1301_ vssd1 vssd1 vccd1 vccd1 _1075_ sky130_fd_sc_hd__mux2_1
X_2199_ _0827_ _0831_ _0835_ _0838_ _1242_ CB_1.config_dataB\[1\] vssd1 vssd1 vccd1
+ vccd1 _0955_ sky130_fd_sc_hd__mux4_1
XANTENNA_fanout192_A net193 vssd1 vssd1 vccd1 vccd1 sky130_fd_sc_hd__diode_2
X_2268_ _1021_ _1022_ _1017_ vssd1 vssd1 vccd1 vccd1 _1024_ sky130_fd_sc_hd__o21a_1
XTAP_TAPCELL_ROW_35_362 vssd1 vccd1 sky130_fd_sc_hd__tapvpwrvgnd_1
Xhold63 LE_0A.config_data\[2\] vssd1 vssd1 vccd1 vccd1 net335 sky130_fd_sc_hd__dlygate4sd3_1
Xhold52 LE_1B.config_data\[2\] vssd1 vssd1 vccd1 vccd1 net324 sky130_fd_sc_hd__dlygate4sd3_1
Xhold30 LE_1A.config_data\[14\] vssd1 vssd1 vccd1 vccd1 net302 sky130_fd_sc_hd__dlygate4sd3_1
Xhold74 LE_1A.config_data\[8\] vssd1 vssd1 vccd1 vccd1 net346 sky130_fd_sc_hd__dlygate4sd3_1
Xhold41 LE_1A.config_data\[3\] vssd1 vssd1 vccd1 vccd1 net313 sky130_fd_sc_hd__dlygate4sd3_1
Xhold96 LEI0.config_data\[39\] vssd1 vssd1 vccd1 vccd1 net368 sky130_fd_sc_hd__dlygate4sd3_1
XFILLER_43_186 vssd1 vssd1 vccd1 vccd1 sky130_fd_sc_hd__fill_1
Xhold85 LE_0B.config_data\[5\] vssd1 vssd1 vccd1 vccd1 net357 sky130_fd_sc_hd__dlygate4sd3_1
XANTENNA_input18_A CBnorth_in[12] vssd1 vssd1 vccd1 vccd1 sky130_fd_sc_hd__diode_2
XPHY_EDGE_ROW_7_Left_71 vssd1 vssd1 vccd1 vccd1 sky130_fd_sc_hd__decap_3
XANTENNA_5 net109 vssd1 vssd1 vccd1 vccd1 sky130_fd_sc_hd__diode_2
X_1570_ _0328_ _0330_ _0331_ vssd1 vssd1 vccd1 vccd1 _0332_ sky130_fd_sc_hd__and3_1
XANTENNA__1950__A0 net23 vssd1 vssd1 vccd1 vccd1 sky130_fd_sc_hd__diode_2
XTAP_TAPCELL_ROW_49_454 vssd1 vccd1 sky130_fd_sc_hd__tapvpwrvgnd_1
X_2053_ SB0.route_sel\[28\] SB0.route_sel\[29\] vssd1 vssd1 vccd1 vccd1 _0811_ sky130_fd_sc_hd__nor2_1
X_2122_ net9 net10 net11 net12 net149 CB_1.config_dataA\[9\] vssd1 vssd1 vccd1 vccd1
+ _0880_ sky130_fd_sc_hd__mux4_1
XTAP_TAPCELL_ROW_32_343 vssd1 vccd1 sky130_fd_sc_hd__tapvpwrvgnd_1
X_2955_ clknet_leaf_23_clk _0163_ net211 vssd1 vssd1 vccd1 vccd1 SB0.route_sel\[27\]
+ sky130_fd_sc_hd__dfstp_1
X_1837_ _1297_ _0578_ _0579_ _1273_ vssd1 vssd1 vccd1 vccd1 _0599_ sky130_fd_sc_hd__o22a_1
X_1906_ _1359_ _0335_ _0338_ _1228_ vssd1 vssd1 vccd1 vccd1 _0666_ sky130_fd_sc_hd__a31o_1
X_1768_ SB0.route_sel\[84\] SB0.route_sel\[85\] net44 vssd1 vssd1 vccd1 vccd1 _0530_
+ sky130_fd_sc_hd__and3_1
XANTENNA__2194__A0 net13 vssd1 vssd1 vccd1 vccd1 sky130_fd_sc_hd__diode_2
X_2886_ LE_1B.sel_clk _0094_ net61 vssd1 vssd1 vccd1 vccd1 LE_1B.dff1_out sky130_fd_sc_hd__dfstp_1
XANTENNA__1941__A0 net136 vssd1 vssd1 vccd1 vccd1 sky130_fd_sc_hd__diode_2
X_1699_ net131 _1330_ _0457_ _0460_ _1333_ vssd1 vssd1 vccd1 vccd1 _0461_ sky130_fd_sc_hd__o32a_1
XFILLER_40_189 vssd1 vssd1 vccd1 vccd1 sky130_fd_sc_hd__fill_1
XFILLER_15_98 vssd1 vssd1 vccd1 vccd1 sky130_fd_sc_hd__fill_1
XANTENNA__1607__S0 LEI0.config_data\[0\] vssd1 vssd1 vccd1 vccd1 sky130_fd_sc_hd__diode_2
XPHY_EDGE_ROW_33_Left_97 vssd1 vssd1 vccd1 vccd1 sky130_fd_sc_hd__decap_3
XANTENNA__2185__A0 net4 vssd1 vssd1 vccd1 vccd1 sky130_fd_sc_hd__diode_2
Xoutput64 net64 vssd1 vssd1 vccd1 vccd1 CBeast_out[10] sky130_fd_sc_hd__buf_2
Xoutput75 net75 vssd1 vssd1 vccd1 vccd1 CBeast_out[8] sky130_fd_sc_hd__buf_2
Xoutput86 net86 vssd1 vssd1 vccd1 vccd1 CBnorth_out[5] sky130_fd_sc_hd__buf_2
XANTENNA__2385__X net117 vssd1 vssd1 vccd1 vccd1 sky130_fd_sc_hd__diode_2
Xoutput97 net97 vssd1 vssd1 vccd1 vccd1 SBsouth_out[2] sky130_fd_sc_hd__buf_2
XTAP_TAPCELL_ROW_54_490 vssd1 vccd1 sky130_fd_sc_hd__tapvpwrvgnd_1
XTAP_TAPCELL_ROW_46_435 vssd1 vccd1 sky130_fd_sc_hd__tapvpwrvgnd_1
X_2740_ net163 CB_0.config_dataB\[7\] net252 vssd1 vssd1 vccd1 vccd1 _0276_ sky130_fd_sc_hd__mux2_1
X_1622_ SB0.route_sel\[26\] SB0.route_sel\[27\] _0378_ _0381_ _0383_ vssd1 vssd1 vccd1
+ vccd1 _0384_ sky130_fd_sc_hd__a221o_1
X_2671_ SB0.route_sel\[71\] SB0.route_sel\[70\] net239 vssd1 vssd1 vccd1 vccd1 _0207_
+ sky130_fd_sc_hd__mux2_1
X_1553_ SB0.route_sel\[106\] SB0.route_sel\[107\] vssd1 vssd1 vccd1 vccd1 _1347_ sky130_fd_sc_hd__nand2_1
XANTENNA__1923__A0 net27 vssd1 vssd1 vccd1 vccd1 sky130_fd_sc_hd__diode_2
XANTENNA__2191__A3 _0819_ vssd1 vssd1 vccd1 vccd1 sky130_fd_sc_hd__diode_2
X_1484_ SB0.route_sel\[49\] SB0.route_sel\[48\] vssd1 vssd1 vccd1 vccd1 _1278_ sky130_fd_sc_hd__nand2_1
X_2036_ SB0.route_sel\[108\] SB0.route_sel\[109\] net119 _1212_ vssd1 vssd1 vccd1
+ vccd1 _0794_ sky130_fd_sc_hd__o22a_1
X_2105_ _0855_ _0862_ vssd1 vssd1 vccd1 vccd1 _0863_ sky130_fd_sc_hd__nand2b_1
X_3085_ clknet_leaf_19_clk _0293_ net217 vssd1 vssd1 vccd1 vccd1 CB_1.config_dataA\[5\]
+ sky130_fd_sc_hd__dfstp_2
XANTENNA__1786__S net171 vssd1 vssd1 vccd1 vccd1 sky130_fd_sc_hd__diode_2
X_2938_ clknet_leaf_27_clk _0146_ net195 vssd1 vssd1 vccd1 vccd1 SB0.route_sel\[10\]
+ sky130_fd_sc_hd__dfstp_1
XFILLER_22_112 vssd1 vssd1 vccd1 vccd1 sky130_fd_sc_hd__fill_1
X_2869_ clknet_leaf_3_clk net351 net201 vssd1 vssd1 vccd1 vccd1 LE_0B.config_data\[4\]
+ sky130_fd_sc_hd__dfrtp_1
XTAP_TAPCELL_ROW_43_416 vssd1 vccd1 sky130_fd_sc_hd__tapvpwrvgnd_1
XFILLER_13_123 vssd1 vssd1 vccd1 vccd1 sky130_fd_sc_hd__fill_2
XTAP_TAPCELL_ROW_51_471 vssd1 vccd1 sky130_fd_sc_hd__tapvpwrvgnd_1
XANTENNA_clkbuf_leaf_5_clk_A clknet_2_1__leaf_clk vssd1 vssd1 vccd1 vccd1 sky130_fd_sc_hd__diode_2
XANTENNA__1905__A0 _1345_ vssd1 vssd1 vccd1 vccd1 sky130_fd_sc_hd__diode_2
X_2723_ CB_0.config_dataA\[11\] CB_0.config_dataA\[10\] net249 vssd1 vssd1 vccd1 vccd1
+ _0259_ sky130_fd_sc_hd__mux2_1
XFILLER_44_281 vssd1 vssd1 vccd1 vccd1 sky130_fd_sc_hd__fill_1
X_1605_ CB_0.config_dataA\[1\] CB_0.config_dataA\[3\] vssd1 vssd1 vccd1 vccd1 _0367_
+ sky130_fd_sc_hd__nand2_1
X_2585_ net184 CB_1.config_dataB\[4\] net264 vssd1 vssd1 vccd1 vccd1 _0121_ sky130_fd_sc_hd__mux2_1
X_2654_ SB0.route_sel\[54\] SB0.route_sel\[53\] net260 vssd1 vssd1 vccd1 vccd1 _0190_
+ sky130_fd_sc_hd__mux2_1
X_1536_ net177 net178 vssd1 vssd1 vccd1 vccd1 _1330_ sky130_fd_sc_hd__or2_2
XANTENNA_fanout272_A net58 vssd1 vssd1 vccd1 vccd1 sky130_fd_sc_hd__diode_2
Xfanout139 net140 vssd1 vssd1 vccd1 vccd1 net139 sky130_fd_sc_hd__clkbuf_2
XTAP_TAPCELL_ROW_57_508 vssd1 vccd1 sky130_fd_sc_hd__tapvpwrvgnd_1
Xfanout128 net130 vssd1 vssd1 vccd1 vccd1 net128 sky130_fd_sc_hd__buf_2
X_1467_ CB_1.config_dataA\[17\] net145 vssd1 vssd1 vccd1 vccd1 _1261_ sky130_fd_sc_hd__nand2_2
X_1398_ SB0.route_sel\[68\] vssd1 vssd1 vccd1 vccd1 _1192_ sky130_fd_sc_hd__inv_2
X_3068_ clknet_leaf_9_clk _0276_ net209 vssd1 vssd1 vccd1 vccd1 CB_0.config_dataB\[8\]
+ sky130_fd_sc_hd__dfstp_1
XFILLER_35_281 vssd1 vssd1 vccd1 vccd1 sky130_fd_sc_hd__fill_1
X_2019_ CB_1.config_dataA\[5\] CB_1.config_dataA\[7\] vssd1 vssd1 vccd1 vccd1 _0777_
+ sky130_fd_sc_hd__nand2_1
XFILLER_50_284 vssd1 vssd1 vccd1 vccd1 sky130_fd_sc_hd__fill_1
XANTENNA__2155__A3 _0813_ vssd1 vssd1 vccd1 vccd1 sky130_fd_sc_hd__diode_2
XANTENNA__2095__B _0831_ vssd1 vssd1 vccd1 vccd1 sky130_fd_sc_hd__diode_2
XANTENNA__2091__A2 net128 vssd1 vssd1 vccd1 vccd1 sky130_fd_sc_hd__diode_2
XANTENNA__1455__A net128 vssd1 vssd1 vccd1 vccd1 sky130_fd_sc_hd__diode_2
X_2370_ _0381_ _1091_ _0383_ vssd1 vssd1 vccd1 vccd1 net70 sky130_fd_sc_hd__a21o_1