* NGSPICE file created from intro_2_stopwatch.ext - technology: sky130A

* Black-box entry subcircuit for sky130_fd_sc_hd__decap_8 abstract view
.subckt sky130_fd_sc_hd__decap_8 VGND VNB VPB VPWR
.ends

* Black-box entry subcircuit for sky130_fd_sc_hd__tapvpwrvgnd_1 abstract view
.subckt sky130_fd_sc_hd__tapvpwrvgnd_1 VGND VPWR
.ends

* Black-box entry subcircuit for sky130_ef_sc_hd__decap_12 abstract view
.subckt sky130_ef_sc_hd__decap_12 VPWR VGND VPB VNB
.ends

* Black-box entry subcircuit for sky130_fd_sc_hd__decap_3 abstract view
.subckt sky130_fd_sc_hd__decap_3 VGND VNB VPB VPWR
.ends

* Black-box entry subcircuit for sky130_fd_sc_hd__decap_6 abstract view
.subckt sky130_fd_sc_hd__decap_6 VGND VNB VPB VPWR
.ends

* Black-box entry subcircuit for sky130_fd_sc_hd__o311a_2 abstract view
.subckt sky130_fd_sc_hd__o311a_2 A1 A2 A3 B1 C1 VGND VNB VPB VPWR X
.ends

* Black-box entry subcircuit for sky130_fd_sc_hd__dfxtp_1 abstract view
.subckt sky130_fd_sc_hd__dfxtp_1 CLK D VGND VNB VPB VPWR Q
.ends

* Black-box entry subcircuit for sky130_fd_sc_hd__decap_4 abstract view
.subckt sky130_fd_sc_hd__decap_4 VGND VNB VPB VPWR
.ends

* Black-box entry subcircuit for sky130_fd_sc_hd__a2111o_1 abstract view
.subckt sky130_fd_sc_hd__a2111o_1 A1 A2 B1 C1 D1 VGND VNB VPB VPWR X
.ends

* Black-box entry subcircuit for sky130_fd_sc_hd__nand2_1 abstract view
.subckt sky130_fd_sc_hd__nand2_1 A B VGND VNB VPB VPWR Y
.ends

* Black-box entry subcircuit for sky130_fd_sc_hd__a22o_1 abstract view
.subckt sky130_fd_sc_hd__a22o_1 A1 A2 B1 B2 VGND VNB VPB VPWR X
.ends

* Black-box entry subcircuit for sky130_fd_sc_hd__o31ai_1 abstract view
.subckt sky130_fd_sc_hd__o31ai_1 A1 A2 A3 B1 VGND VNB VPB VPWR Y
.ends

* Black-box entry subcircuit for sky130_fd_sc_hd__a21oi_2 abstract view
.subckt sky130_fd_sc_hd__a21oi_2 A1 A2 B1 VGND VNB VPB VPWR Y
.ends

* Black-box entry subcircuit for sky130_fd_sc_hd__xor2_2 abstract view
.subckt sky130_fd_sc_hd__xor2_2 A B VGND VNB VPB VPWR X
.ends

* Black-box entry subcircuit for sky130_fd_sc_hd__and2_1 abstract view
.subckt sky130_fd_sc_hd__and2_1 A B VGND VNB VPB VPWR X
.ends

* Black-box entry subcircuit for sky130_fd_sc_hd__and4bb_1 abstract view
.subckt sky130_fd_sc_hd__and4bb_1 A_N B_N C D VGND VNB VPB VPWR X
.ends

* Black-box entry subcircuit for sky130_fd_sc_hd__fill_1 abstract view
.subckt sky130_fd_sc_hd__fill_1 VGND VNB VPB VPWR
.ends

* Black-box entry subcircuit for sky130_fd_sc_hd__o311a_1 abstract view
.subckt sky130_fd_sc_hd__o311a_1 A1 A2 A3 B1 C1 VGND VNB VPB VPWR X
.ends

* Black-box entry subcircuit for sky130_fd_sc_hd__xnor2_1 abstract view
.subckt sky130_fd_sc_hd__xnor2_1 A B VGND VNB VPB VPWR Y
.ends

* Black-box entry subcircuit for sky130_fd_sc_hd__nor2_1 abstract view
.subckt sky130_fd_sc_hd__nor2_1 A B VGND VNB VPB VPWR Y
.ends

* Black-box entry subcircuit for sky130_fd_sc_hd__fill_2 abstract view
.subckt sky130_fd_sc_hd__fill_2 VGND VNB VPB VPWR
.ends

* Black-box entry subcircuit for sky130_fd_sc_hd__or2_1 abstract view
.subckt sky130_fd_sc_hd__or2_1 A B VGND VNB VPB VPWR X
.ends

* Black-box entry subcircuit for sky130_fd_sc_hd__dlygate4sd3_1 abstract view
.subckt sky130_fd_sc_hd__dlygate4sd3_1 A VGND VNB VPB VPWR X
.ends

* Black-box entry subcircuit for sky130_fd_sc_hd__and3b_1 abstract view
.subckt sky130_fd_sc_hd__and3b_1 A_N B C VGND VNB VPB VPWR X
.ends

* Black-box entry subcircuit for sky130_fd_sc_hd__xnor2_2 abstract view
.subckt sky130_fd_sc_hd__xnor2_2 A B VGND VNB VPB VPWR Y
.ends

* Black-box entry subcircuit for sky130_fd_sc_hd__buf_2 abstract view
.subckt sky130_fd_sc_hd__buf_2 A VGND VNB VPB VPWR X
.ends

* Black-box entry subcircuit for sky130_fd_sc_hd__a21oi_1 abstract view
.subckt sky130_fd_sc_hd__a21oi_1 A1 A2 B1 VGND VNB VPB VPWR Y
.ends

* Black-box entry subcircuit for sky130_fd_sc_hd__nor3_1 abstract view
.subckt sky130_fd_sc_hd__nor3_1 A B C VGND VNB VPB VPWR Y
.ends

* Black-box entry subcircuit for sky130_fd_sc_hd__a21o_1 abstract view
.subckt sky130_fd_sc_hd__a21o_1 A1 A2 B1 VGND VNB VPB VPWR X
.ends

* Black-box entry subcircuit for sky130_fd_sc_hd__or4_1 abstract view
.subckt sky130_fd_sc_hd__or4_1 A B C D VGND VNB VPB VPWR X
.ends

* Black-box entry subcircuit for sky130_fd_sc_hd__a31o_1 abstract view
.subckt sky130_fd_sc_hd__a31o_1 A1 A2 A3 B1 VGND VNB VPB VPWR X
.ends

* Black-box entry subcircuit for sky130_fd_sc_hd__o2bb2a_1 abstract view
.subckt sky130_fd_sc_hd__o2bb2a_1 A1_N A2_N B1 B2 VGND VNB VPB VPWR X
.ends

* Black-box entry subcircuit for sky130_fd_sc_hd__a32o_1 abstract view
.subckt sky130_fd_sc_hd__a32o_1 A1 A2 A3 B1 B2 VGND VNB VPB VPWR X
.ends

* Black-box entry subcircuit for sky130_fd_sc_hd__or4b_1 abstract view
.subckt sky130_fd_sc_hd__or4b_1 A B C D_N VGND VNB VPB VPWR X
.ends

* Black-box entry subcircuit for sky130_fd_sc_hd__clkbuf_16 abstract view
.subckt sky130_fd_sc_hd__clkbuf_16 A VGND VNB VPB VPWR X
.ends

* Black-box entry subcircuit for sky130_fd_sc_hd__xnor2_4 abstract view
.subckt sky130_fd_sc_hd__xnor2_4 A B VGND VNB VPB VPWR Y
.ends

* Black-box entry subcircuit for sky130_fd_sc_hd__or3_1 abstract view
.subckt sky130_fd_sc_hd__or3_1 A B C VGND VNB VPB VPWR X
.ends

* Black-box entry subcircuit for sky130_fd_sc_hd__dfxtp_2 abstract view
.subckt sky130_fd_sc_hd__dfxtp_2 CLK D VGND VNB VPB VPWR Q
.ends

* Black-box entry subcircuit for sky130_fd_sc_hd__nor2_2 abstract view
.subckt sky130_fd_sc_hd__nor2_2 A B VGND VNB VPB VPWR Y
.ends

* Black-box entry subcircuit for sky130_fd_sc_hd__nand3_1 abstract view
.subckt sky130_fd_sc_hd__nand3_1 A B C VGND VNB VPB VPWR Y
.ends

* Black-box entry subcircuit for sky130_fd_sc_hd__and3_1 abstract view
.subckt sky130_fd_sc_hd__and3_1 A B C VGND VNB VPB VPWR X
.ends

* Black-box entry subcircuit for sky130_fd_sc_hd__o21ai_1 abstract view
.subckt sky130_fd_sc_hd__o21ai_1 A1 A2 B1 VGND VNB VPB VPWR Y
.ends

* Black-box entry subcircuit for sky130_fd_sc_hd__a21bo_1 abstract view
.subckt sky130_fd_sc_hd__a21bo_1 A1 A2 B1_N VGND VNB VPB VPWR X
.ends

* Black-box entry subcircuit for sky130_fd_sc_hd__or2_2 abstract view
.subckt sky130_fd_sc_hd__or2_2 A B VGND VNB VPB VPWR X
.ends

* Black-box entry subcircuit for sky130_fd_sc_hd__a22oi_2 abstract view
.subckt sky130_fd_sc_hd__a22oi_2 A1 A2 B1 B2 VGND VNB VPB VPWR Y
.ends

* Black-box entry subcircuit for sky130_fd_sc_hd__and2_2 abstract view
.subckt sky130_fd_sc_hd__and2_2 A B VGND VNB VPB VPWR X
.ends

* Black-box entry subcircuit for sky130_fd_sc_hd__and4_1 abstract view
.subckt sky130_fd_sc_hd__and4_1 A B C D VGND VNB VPB VPWR X
.ends

* Black-box entry subcircuit for sky130_fd_sc_hd__mux2_1 abstract view
.subckt sky130_fd_sc_hd__mux2_1 A0 A1 S VGND VNB VPB VPWR X
.ends

* Black-box entry subcircuit for sky130_fd_sc_hd__and2b_1 abstract view
.subckt sky130_fd_sc_hd__and2b_1 A_N B VGND VNB VPB VPWR X
.ends

* Black-box entry subcircuit for sky130_fd_sc_hd__a22o_2 abstract view
.subckt sky130_fd_sc_hd__a22o_2 A1 A2 B1 B2 VGND VNB VPB VPWR X
.ends

* Black-box entry subcircuit for sky130_fd_sc_hd__or3b_1 abstract view
.subckt sky130_fd_sc_hd__or3b_1 A B C_N VGND VNB VPB VPWR X
.ends

* Black-box entry subcircuit for sky130_fd_sc_hd__mux2_2 abstract view
.subckt sky130_fd_sc_hd__mux2_2 A0 A1 S VGND VNB VPB VPWR X
.ends

* Black-box entry subcircuit for sky130_fd_sc_hd__nand3_2 abstract view
.subckt sky130_fd_sc_hd__nand3_2 A B C VGND VNB VPB VPWR Y
.ends

* Black-box entry subcircuit for sky130_fd_sc_hd__o31a_1 abstract view
.subckt sky130_fd_sc_hd__o31a_1 A1 A2 A3 B1 VGND VNB VPB VPWR X
.ends

* Black-box entry subcircuit for sky130_fd_sc_hd__inv_6 abstract view
.subckt sky130_fd_sc_hd__inv_6 A VGND VNB VPB VPWR Y
.ends

* Black-box entry subcircuit for sky130_fd_sc_hd__a32oi_4 abstract view
.subckt sky130_fd_sc_hd__a32oi_4 A1 A2 A3 B1 B2 VGND VNB VPB VPWR Y
.ends

* Black-box entry subcircuit for sky130_fd_sc_hd__a211o_1 abstract view
.subckt sky130_fd_sc_hd__a211o_1 A1 A2 B1 C1 VGND VNB VPB VPWR X
.ends

* Black-box entry subcircuit for sky130_fd_sc_hd__a2bb2o_1 abstract view
.subckt sky130_fd_sc_hd__a2bb2o_1 A1_N A2_N B1 B2 VGND VNB VPB VPWR X
.ends

* Black-box entry subcircuit for sky130_fd_sc_hd__nand2b_1 abstract view
.subckt sky130_fd_sc_hd__nand2b_1 A_N B VGND VNB VPB VPWR Y
.ends

* Black-box entry subcircuit for sky130_fd_sc_hd__xor2_1 abstract view
.subckt sky130_fd_sc_hd__xor2_1 A B VGND VNB VPB VPWR X
.ends

* Black-box entry subcircuit for sky130_fd_sc_hd__inv_2 abstract view
.subckt sky130_fd_sc_hd__inv_2 A VGND VNB VPB VPWR Y
.ends

* Black-box entry subcircuit for sky130_fd_sc_hd__a21boi_1 abstract view
.subckt sky130_fd_sc_hd__a21boi_1 A1 A2 B1_N VGND VNB VPB VPWR Y
.ends

* Black-box entry subcircuit for sky130_fd_sc_hd__clkinvlp_4 abstract view
.subckt sky130_fd_sc_hd__clkinvlp_4 A VGND VNB VPB VPWR Y
.ends

* Black-box entry subcircuit for sky130_fd_sc_hd__xor2_4 abstract view
.subckt sky130_fd_sc_hd__xor2_4 A B VGND VNB VPB VPWR X
.ends

* Black-box entry subcircuit for sky130_fd_sc_hd__nand2_2 abstract view
.subckt sky130_fd_sc_hd__nand2_2 A B VGND VNB VPB VPWR Y
.ends

* Black-box entry subcircuit for sky130_fd_sc_hd__bufinv_16 abstract view
.subckt sky130_fd_sc_hd__bufinv_16 A VGND VNB VPB VPWR Y
.ends

* Black-box entry subcircuit for sky130_fd_sc_hd__nand4b_1 abstract view
.subckt sky130_fd_sc_hd__nand4b_1 A_N B C D VGND VNB VPB VPWR Y
.ends

* Black-box entry subcircuit for sky130_fd_sc_hd__and4b_1 abstract view
.subckt sky130_fd_sc_hd__and4b_1 A_N B C D VGND VNB VPB VPWR X
.ends

* Black-box entry subcircuit for sky130_fd_sc_hd__clkinv_2 abstract view
.subckt sky130_fd_sc_hd__clkinv_2 A VGND VNB VPB VPWR Y
.ends

* Black-box entry subcircuit for sky130_fd_sc_hd__clkinv_4 abstract view
.subckt sky130_fd_sc_hd__clkinv_4 A VGND VNB VPB VPWR Y
.ends

* Black-box entry subcircuit for sky130_fd_sc_hd__o211ai_4 abstract view
.subckt sky130_fd_sc_hd__o211ai_4 A1 A2 B1 C1 VGND VNB VPB VPWR Y
.ends

* Black-box entry subcircuit for sky130_fd_sc_hd__clkbuf_2 abstract view
.subckt sky130_fd_sc_hd__clkbuf_2 A VGND VNB VPB VPWR X
.ends

* Black-box entry subcircuit for sky130_fd_sc_hd__o41a_1 abstract view
.subckt sky130_fd_sc_hd__o41a_1 A1 A2 A3 A4 B1 VGND VNB VPB VPWR X
.ends

* Black-box entry subcircuit for sky130_fd_sc_hd__o21a_1 abstract view
.subckt sky130_fd_sc_hd__o21a_1 A1 A2 B1 VGND VNB VPB VPWR X
.ends

* Black-box entry subcircuit for sky130_fd_sc_hd__o221a_1 abstract view
.subckt sky130_fd_sc_hd__o221a_1 A1 A2 B1 B2 C1 VGND VNB VPB VPWR X
.ends

* Black-box entry subcircuit for sky130_fd_sc_hd__buf_1 abstract view
.subckt sky130_fd_sc_hd__buf_1 A VGND VNB VPB VPWR X
.ends

* Black-box entry subcircuit for sky130_fd_sc_hd__o211a_1 abstract view
.subckt sky130_fd_sc_hd__o211a_1 A1 A2 B1 C1 VGND VNB VPB VPWR X
.ends

* Black-box entry subcircuit for sky130_fd_sc_hd__a221o_1 abstract view
.subckt sky130_fd_sc_hd__a221o_1 A1 A2 B1 B2 C1 VGND VNB VPB VPWR X
.ends

* Black-box entry subcircuit for sky130_fd_sc_hd__a31oi_1 abstract view
.subckt sky130_fd_sc_hd__a31oi_1 A1 A2 A3 B1 VGND VNB VPB VPWR Y
.ends

* Black-box entry subcircuit for sky130_fd_sc_hd__or3_2 abstract view
.subckt sky130_fd_sc_hd__or3_2 A B C VGND VNB VPB VPWR X
.ends

* Black-box entry subcircuit for sky130_fd_sc_hd__a2111oi_1 abstract view
.subckt sky130_fd_sc_hd__a2111oi_1 A1 A2 B1 C1 D1 VGND VNB VPB VPWR Y
.ends

* Black-box entry subcircuit for sky130_fd_sc_hd__clkbuf_1 abstract view
.subckt sky130_fd_sc_hd__clkbuf_1 A VGND VNB VPB VPWR X
.ends

* Black-box entry subcircuit for sky130_fd_sc_hd__nor3b_1 abstract view
.subckt sky130_fd_sc_hd__nor3b_1 A B C_N VGND VNB VPB VPWR Y
.ends

* Black-box entry subcircuit for sky130_fd_sc_hd__clkbuf_4 abstract view
.subckt sky130_fd_sc_hd__clkbuf_4 A VGND VNB VPB VPWR X
.ends

* Black-box entry subcircuit for sky130_fd_sc_hd__dlymetal6s2s_1 abstract view
.subckt sky130_fd_sc_hd__dlymetal6s2s_1 A VGND VNB VPB VPWR X
.ends

* Black-box entry subcircuit for sky130_fd_sc_hd__a221oi_4 abstract view
.subckt sky130_fd_sc_hd__a221oi_4 A1 A2 B1 B2 C1 VGND VNB VPB VPWR Y
.ends

* Black-box entry subcircuit for sky130_fd_sc_hd__o21ba_1 abstract view
.subckt sky130_fd_sc_hd__o21ba_1 A1 A2 B1_N VGND VNB VPB VPWR X
.ends

* Black-box entry subcircuit for sky130_fd_sc_hd__o2111ai_4 abstract view
.subckt sky130_fd_sc_hd__o2111ai_4 A1 A2 B1 C1 D1 VGND VNB VPB VPWR Y
.ends

* Black-box entry subcircuit for sky130_fd_sc_hd__o2111a_1 abstract view
.subckt sky130_fd_sc_hd__o2111a_1 A1 A2 B1 C1 D1 VGND VNB VPB VPWR X
.ends

* Black-box entry subcircuit for sky130_fd_sc_hd__a2111o_4 abstract view
.subckt sky130_fd_sc_hd__a2111o_4 A1 A2 B1 C1 D1 VGND VNB VPB VPWR X
.ends

* Black-box entry subcircuit for sky130_fd_sc_hd__a311o_1 abstract view
.subckt sky130_fd_sc_hd__a311o_1 A1 A2 A3 B1 C1 VGND VNB VPB VPWR X
.ends

* Black-box entry subcircuit for sky130_fd_sc_hd__a21o_2 abstract view
.subckt sky130_fd_sc_hd__a21o_2 A1 A2 B1 VGND VNB VPB VPWR X
.ends

* Black-box entry subcircuit for sky130_fd_sc_hd__o22ai_2 abstract view
.subckt sky130_fd_sc_hd__o22ai_2 A1 A2 B1 B2 VGND VNB VPB VPWR Y
.ends

* Black-box entry subcircuit for sky130_fd_sc_hd__or4bb_1 abstract view
.subckt sky130_fd_sc_hd__or4bb_1 A B C_N D_N VGND VNB VPB VPWR X
.ends

* Black-box entry subcircuit for sky130_fd_sc_hd__o21ai_2 abstract view
.subckt sky130_fd_sc_hd__o21ai_2 A1 A2 B1 VGND VNB VPB VPWR Y
.ends

* Black-box entry subcircuit for sky130_fd_sc_hd__o32a_2 abstract view
.subckt sky130_fd_sc_hd__o32a_2 A1 A2 A3 B1 B2 VGND VNB VPB VPWR X
.ends

* Black-box entry subcircuit for sky130_fd_sc_hd__a41o_1 abstract view
.subckt sky130_fd_sc_hd__a41o_1 A1 A2 A3 A4 B1 VGND VNB VPB VPWR X
.ends

* Black-box entry subcircuit for sky130_fd_sc_hd__conb_1 abstract view
.subckt sky130_fd_sc_hd__conb_1 VGND VNB VPB VPWR HI LO
.ends

* Black-box entry subcircuit for sky130_fd_sc_hd__o22a_1 abstract view
.subckt sky130_fd_sc_hd__o22a_1 A1 A2 B1 B2 VGND VNB VPB VPWR X
.ends

* Black-box entry subcircuit for sky130_fd_sc_hd__or3b_2 abstract view
.subckt sky130_fd_sc_hd__or3b_2 A B C_N VGND VNB VPB VPWR X
.ends

* Black-box entry subcircuit for sky130_fd_sc_hd__o21bai_2 abstract view
.subckt sky130_fd_sc_hd__o21bai_2 A1 A2 B1_N VGND VNB VPB VPWR Y
.ends

* Black-box entry subcircuit for sky130_fd_sc_hd__a41oi_4 abstract view
.subckt sky130_fd_sc_hd__a41oi_4 A1 A2 A3 A4 B1 VGND VNB VPB VPWR Y
.ends

* Black-box entry subcircuit for sky130_fd_sc_hd__a31oi_2 abstract view
.subckt sky130_fd_sc_hd__a31oi_2 A1 A2 A3 B1 VGND VNB VPB VPWR Y
.ends

* Black-box entry subcircuit for sky130_fd_sc_hd__or4_2 abstract view
.subckt sky130_fd_sc_hd__or4_2 A B C D VGND VNB VPB VPWR X
.ends

* Black-box entry subcircuit for sky130_fd_sc_hd__o21bai_1 abstract view
.subckt sky130_fd_sc_hd__o21bai_1 A1 A2 B1_N VGND VNB VPB VPWR Y
.ends

* Black-box entry subcircuit for sky130_fd_sc_hd__o2bb2a_2 abstract view
.subckt sky130_fd_sc_hd__o2bb2a_2 A1_N A2_N B1 B2 VGND VNB VPB VPWR X
.ends

* Black-box entry subcircuit for sky130_fd_sc_hd__a211oi_1 abstract view
.subckt sky130_fd_sc_hd__a211oi_1 A1 A2 B1 C1 VGND VNB VPB VPWR Y
.ends

* Black-box entry subcircuit for sky130_fd_sc_hd__dfxtp_4 abstract view
.subckt sky130_fd_sc_hd__dfxtp_4 CLK D VGND VNB VPB VPWR Q
.ends

* Black-box entry subcircuit for sky130_fd_sc_hd__a21boi_2 abstract view
.subckt sky130_fd_sc_hd__a21boi_2 A1 A2 B1_N VGND VNB VPB VPWR Y
.ends

* Black-box entry subcircuit for sky130_fd_sc_hd__o31a_2 abstract view
.subckt sky130_fd_sc_hd__o31a_2 A1 A2 A3 B1 VGND VNB VPB VPWR X
.ends

.subckt intro_2_stopwatch BTN[0] BTN[1] BTN[2] BTN[3] CLK_10MHZ D0_AN_0 D0_AN_1 D0_AN_2
+ D0_AN_3 D0_SEG[0] D0_SEG[1] D0_SEG[2] D0_SEG[3] D0_SEG[4] D0_SEG[5] D0_SEG[6] D0_SEG[7]
+ VGND VPWR
XFILLER_36_19 VGND VGND VPWR VPWR sky130_fd_sc_hd__decap_8
XTAP_TAPCELL_ROW_17_191 VGND VPWR sky130_fd_sc_hd__tapvpwrvgnd_1
XTAP_TAPCELL_ROW_9_148 VGND VPWR sky130_fd_sc_hd__tapvpwrvgnd_1
XFILLER_45_225 VPWR VGND VPWR VGND sky130_ef_sc_hd__decap_12
XPHY_EDGE_ROW_37_Left_86 VGND VGND VPWR VPWR sky130_fd_sc_hd__decap_3
XFILLER_26_63 VPWR VGND VPWR VGND sky130_ef_sc_hd__decap_12
XFILLER_42_95 VGND VGND VPWR VPWR sky130_fd_sc_hd__decap_3
XFILLER_9_137 VGND VGND VPWR VPWR sky130_fd_sc_hd__decap_6
X_1270_ _0493_ _0503_ _0505_ _0508_ _0490_ VGND VGND VPWR VPWR _0509_ sky130_fd_sc_hd__o311a_2
X_1606_ clknet_3_1__leaf_CLK_10MHZ net59 VGND VGND VPWR VPWR sync_pause.q sky130_fd_sc_hd__dfxtp_1
XFILLER_8_192 VGND VGND VPWR VPWR sky130_fd_sc_hd__decap_4
X_0985_ _0199_ _0200_ _0209_ _0220_ _0221_ VGND VGND VPWR VPWR _0224_ sky130_fd_sc_hd__a2111o_1
X_1399_ _0636_ _0637_ VGND VGND VPWR VPWR _0638_ sky130_fd_sc_hd__nand2_1
X_1468_ _0615_ _0694_ _0699_ _0662_ VGND VGND VPWR VPWR _0700_ sky130_fd_sc_hd__a22o_1
X_1537_ clock_div.cycles\[25\] _0755_ VGND VGND VPWR VPWR _0758_ sky130_fd_sc_hd__nand2_1
XFILLER_41_261 VPWR VGND VPWR VGND sky130_ef_sc_hd__decap_12
XFILLER_5_162 VGND VGND VPWR VPWR sky130_fd_sc_hd__decap_3
X_1253_ _0472_ net23 net22 _0473_ VGND VGND VPWR VPWR _0492_ sky130_fd_sc_hd__o31ai_1
X_1322_ net19 _0549_ _0552_ VGND VGND VPWR VPWR _0561_ sky130_fd_sc_hd__a21oi_2
X_1184_ _0271_ _0422_ VGND VGND VPWR VPWR _0423_ sky130_fd_sc_hd__xor2_2
XFILLER_24_228 VGND VGND VPWR VPWR sky130_fd_sc_hd__decap_3
XFILLER_32_272 VPWR VGND VPWR VGND sky130_ef_sc_hd__decap_12
X_0968_ clock_div.cycles\[20\] _0191_ VGND VGND VPWR VPWR _0207_ sky130_fd_sc_hd__and2_1
X_0899_ _0147_ _0139_ _0136_ _0133_ VGND VGND VPWR VPWR _0148_ sky130_fd_sc_hd__and4bb_1
XFILLER_15_239 VPWR VGND VPWR VGND sky130_ef_sc_hd__decap_12
XFILLER_23_20 VGND VGND VPWR VPWR sky130_fd_sc_hd__fill_1
XTAP_TAPCELL_ROW_48_348 VGND VPWR sky130_fd_sc_hd__tapvpwrvgnd_1
XFILLER_48_83 VGND VGND VPWR VPWR sky130_fd_sc_hd__fill_1
XFILLER_0_57 VPWR VGND VPWR VGND sky130_ef_sc_hd__decap_12
X_0822_ net43 bcd_num\[5\] net44 net6 _0083_ VGND VGND VPWR VPWR _0090_ sky130_fd_sc_hd__o311a_1
XTAP_TAPCELL_ROW_31_259 VGND VPWR sky130_fd_sc_hd__tapvpwrvgnd_1
XFILLER_9_99 VGND VGND VPWR VPWR sky130_fd_sc_hd__decap_4
XPHY_EDGE_ROW_24_Left_73 VGND VGND VPWR VPWR sky130_fd_sc_hd__decap_3
X_1305_ _0542_ _0543_ VGND VGND VPWR VPWR _0544_ sky130_fd_sc_hd__and2_1
X_1236_ _0432_ _0474_ VGND VGND VPWR VPWR _0475_ sky130_fd_sc_hd__and2_1
X_1167_ _0350_ _0387_ VGND VGND VPWR VPWR _0406_ sky130_fd_sc_hd__xnor2_1
X_1098_ _0284_ _0294_ VGND VGND VPWR VPWR _0337_ sky130_fd_sc_hd__nor2_1
XTAP_TAPCELL_ROW_22_215 VGND VPWR sky130_fd_sc_hd__tapvpwrvgnd_1
XFILLER_20_286 VGND VGND VPWR VPWR sky130_fd_sc_hd__fill_2
XTAP_TAPCELL_ROW_45_329 VGND VPWR sky130_fd_sc_hd__tapvpwrvgnd_1
XFILLER_18_97 VPWR VGND VPWR VGND sky130_ef_sc_hd__decap_12
XFILLER_34_74 VGND VGND VPWR VPWR sky130_fd_sc_hd__decap_8
XFILLER_11_275 VGND VGND VPWR VPWR sky130_fd_sc_hd__decap_4
X_1021_ _0195_ _0258_ VGND VGND VPWR VPWR _0260_ sky130_fd_sc_hd__and2_1
X_0805_ bcd_num\[1\] bcd_num\[0\] VGND VGND VPWR VPWR _0076_ sky130_fd_sc_hd__or2_1
X_1219_ _0455_ _0457_ VGND VGND VPWR VPWR _0458_ sky130_fd_sc_hd__or2_1
XFILLER_4_205 VGND VGND VPWR VPWR sky130_fd_sc_hd__fill_1
Xhold30 digit_scanner.period_counter\[5\] VGND VGND VPWR VPWR net84 sky130_fd_sc_hd__dlygate4sd3_1
Xhold41 bcd_num\[7\] VGND VGND VPWR VPWR net95 sky130_fd_sc_hd__dlygate4sd3_1
XFILLER_45_73 VGND VGND VPWR VPWR sky130_fd_sc_hd__fill_1
XTAP_TAPCELL_ROW_41_310 VGND VPWR sky130_fd_sc_hd__tapvpwrvgnd_1
X_1570_ _0779_ _0773_ _0778_ VGND VGND VPWR VPWR _0055_ sky130_fd_sc_hd__and3b_1
XFILLER_6_89 VGND VGND VPWR VPWR sky130_fd_sc_hd__fill_1
XFILLER_13_3 VPWR VGND VPWR VGND sky130_ef_sc_hd__decap_12
XFILLER_19_161 VGND VGND VPWR VPWR sky130_fd_sc_hd__decap_3
XFILLER_34_164 VGND VGND VPWR VPWR sky130_fd_sc_hd__decap_8
X_1004_ clock_div.cycles\[24\] _0241_ VGND VGND VPWR VPWR _0243_ sky130_fd_sc_hd__xnor2_2
XPHY_EDGE_ROW_11_Left_60 VGND VGND VPWR VPWR sky130_fd_sc_hd__decap_3
XFILLER_25_175 VPWR VGND VPWR VGND sky130_ef_sc_hd__decap_12
Xoutput7 net7 VGND VGND VPWR VPWR D0_SEG[0] sky130_fd_sc_hd__buf_2
XFILLER_31_167 VGND VGND VPWR VPWR sky130_fd_sc_hd__fill_1
X_1622_ clknet_3_7__leaf_CLK_10MHZ _0028_ VGND VGND VPWR VPWR clock_div.cycles\[9\]
+ sky130_fd_sc_hd__dfxtp_1
X_1553_ clock_div.cycles\[29\] _0765_ clock_div.cycles\[30\] VGND VGND VPWR VPWR _0769_
+ sky130_fd_sc_hd__a21oi_1
X_1484_ net46 _0707_ VGND VGND VPWR VPWR _0714_ sky130_fd_sc_hd__nor2_1
XTAP_TAPCELL_ROW_17_192 VGND VPWR sky130_fd_sc_hd__tapvpwrvgnd_1
XTAP_TAPCELL_ROW_9_149 VGND VPWR sky130_fd_sc_hd__tapvpwrvgnd_1
XFILLER_45_237 VPWR VGND VPWR VGND sky130_ef_sc_hd__decap_12
XFILLER_13_167 VGND VGND VPWR VPWR sky130_fd_sc_hd__fill_1
XFILLER_26_75 VGND VGND VPWR VPWR sky130_fd_sc_hd__decap_8
XFILLER_42_85 VGND VGND VPWR VPWR sky130_fd_sc_hd__fill_2
XFILLER_42_63 VGND VGND VPWR VPWR sky130_fd_sc_hd__decap_4
XFILLER_13_178 VPWR VGND VPWR VGND sky130_ef_sc_hd__decap_12
XFILLER_47_9 VGND VGND VPWR VPWR sky130_fd_sc_hd__decap_6
XFILLER_3_57 VPWR VGND VPWR VGND sky130_ef_sc_hd__decap_12
XTAP_TAPCELL_ROW_14_173 VGND VPWR sky130_fd_sc_hd__tapvpwrvgnd_1
X_0984_ _0209_ _0220_ _0221_ VGND VGND VPWR VPWR _0223_ sky130_fd_sc_hd__nor3_1
X_1605_ clknet_3_1__leaf_CLK_10MHZ net3 VGND VGND VPWR VPWR sync_pause.sync_1 sky130_fd_sc_hd__dfxtp_1
X_1536_ clock_div.cycles\[25\] _0755_ VGND VGND VPWR VPWR _0757_ sky130_fd_sc_hd__or2_1
X_1398_ _0068_ net16 _0581_ VGND VGND VPWR VPWR _0637_ sky130_fd_sc_hd__a21o_1
X_1467_ _0174_ _0649_ VGND VGND VPWR VPWR _0699_ sky130_fd_sc_hd__nand2_1
XFILLER_35_281 VGND VGND VPWR VPWR sky130_fd_sc_hd__decap_6
XFILLER_12_77 VGND VGND VPWR VPWR sky130_fd_sc_hd__decap_6
XTAP_TAPCELL_ROW_5_130 VGND VPWR sky130_fd_sc_hd__tapvpwrvgnd_1
XFILLER_37_63 VGND VGND VPWR VPWR sky130_fd_sc_hd__decap_4
XFILLER_18_215 VGND VGND VPWR VPWR sky130_fd_sc_hd__decap_6
XFILLER_18_259 VGND VGND VPWR VPWR sky130_fd_sc_hd__fill_1
XTAP_TAPCELL_ROW_28_243 VGND VPWR sky130_fd_sc_hd__tapvpwrvgnd_1
XFILLER_41_273 VGND VGND VPWR VPWR sky130_fd_sc_hd__decap_6
XFILLER_5_196 VGND VGND VPWR VPWR sky130_fd_sc_hd__decap_6
XFILLER_5_141 VGND VGND VPWR VPWR sky130_fd_sc_hd__fill_2
X_1321_ _0518_ _0556_ VGND VGND VPWR VPWR _0560_ sky130_fd_sc_hd__xnor2_1
X_1252_ _0472_ _0473_ net23 net22 VGND VGND VPWR VPWR _0491_ sky130_fd_sc_hd__or4_1
X_1183_ _0354_ _0356_ _0412_ _0353_ VGND VGND VPWR VPWR _0422_ sky130_fd_sc_hd__a31o_1
XFILLER_32_284 VGND VGND VPWR VPWR sky130_fd_sc_hd__decap_4
X_0967_ _0204_ _0205_ VGND VGND VPWR VPWR _0206_ sky130_fd_sc_hd__nor2_1
X_0898_ _0141_ _0144_ _0146_ _0130_ VGND VGND VPWR VPWR _0147_ sky130_fd_sc_hd__o2bb2a_1
XPHY_EDGE_ROW_12_Right_12 VGND VGND VPWR VPWR sky130_fd_sc_hd__decap_3
X_1519_ net34 _0740_ _0743_ net40 net100 VGND VGND VPWR VPWR _0040_ sky130_fd_sc_hd__a32o_1
XPHY_EDGE_ROW_21_Right_21 VGND VGND VPWR VPWR sky130_fd_sc_hd__decap_3
XPHY_EDGE_ROW_30_Right_30 VGND VGND VPWR VPWR sky130_fd_sc_hd__decap_3
XFILLER_23_98 VGND VGND VPWR VPWR sky130_fd_sc_hd__fill_1
XTAP_TAPCELL_ROW_48_349 VGND VPWR sky130_fd_sc_hd__tapvpwrvgnd_1
XFILLER_0_69 VPWR VGND VPWR VGND sky130_ef_sc_hd__decap_12
XFILLER_14_240 VGND VGND VPWR VPWR sky130_fd_sc_hd__fill_1
X_0821_ _0077_ _0088_ _0081_ VGND VGND VPWR VPWR _0089_ sky130_fd_sc_hd__a21oi_1
XFILLER_14_251 VGND VGND VPWR VPWR sky130_fd_sc_hd__fill_1
XFILLER_43_3 VGND VGND VPWR VPWR sky130_fd_sc_hd__decap_3
X_1304_ _0480_ net23 net22 _0478_ VGND VGND VPWR VPWR _0543_ sky130_fd_sc_hd__or4b_1
X_1166_ _0375_ _0397_ _0399_ _0403_ VGND VGND VPWR VPWR _0405_ sky130_fd_sc_hd__a31o_1
X_1235_ _0465_ _0467_ _0470_ _0473_ VGND VGND VPWR VPWR _0474_ sky130_fd_sc_hd__a31o_1
X_1097_ _0333_ _0335_ VGND VGND VPWR VPWR _0336_ sky130_fd_sc_hd__nor2_1
XTAP_TAPCELL_ROW_22_216 VGND VPWR sky130_fd_sc_hd__tapvpwrvgnd_1
Xclkbuf_3_2__f_CLK_10MHZ clknet_0_CLK_10MHZ VGND VGND VPWR VPWR clknet_3_2__leaf_CLK_10MHZ
+ sky130_fd_sc_hd__clkbuf_16
XPHY_EDGE_ROW_41_Left_90 VGND VGND VPWR VPWR sky130_fd_sc_hd__decap_3
XFILLER_34_64 VGND VGND VPWR VPWR sky130_fd_sc_hd__decap_4
XFILLER_34_53 VGND VGND VPWR VPWR sky130_fd_sc_hd__decap_4
XFILLER_7_225 VPWR VGND VPWR VGND sky130_ef_sc_hd__decap_12
XFILLER_11_287 VGND VGND VPWR VPWR sky130_fd_sc_hd__fill_1
X_1020_ _0195_ _0258_ VGND VGND VPWR VPWR _0259_ sky130_fd_sc_hd__nor2_1
XFILLER_46_195 VGND VGND VPWR VPWR sky130_fd_sc_hd__fill_1
XFILLER_46_173 VGND VGND VPWR VPWR sky130_fd_sc_hd__fill_1
X_0804_ _0072_ _0074_ net5 VGND VGND VPWR VPWR _0075_ sky130_fd_sc_hd__a21o_1
X_1149_ _0350_ _0387_ VGND VGND VPWR VPWR _0388_ sky130_fd_sc_hd__or2_1
X_1218_ _0403_ _0456_ VGND VGND VPWR VPWR _0457_ sky130_fd_sc_hd__xnor2_4
XFILLER_20_88 VGND VGND VPWR VPWR sky130_fd_sc_hd__decap_8
Xhold31 _0005_ VGND VGND VPWR VPWR net85 sky130_fd_sc_hd__dlygate4sd3_1
Xhold20 _0123_ VGND VGND VPWR VPWR net74 sky130_fd_sc_hd__dlygate4sd3_1
Xhold42 clock_div.cycles\[8\] VGND VGND VPWR VPWR net96 sky130_fd_sc_hd__dlygate4sd3_1
XFILLER_45_63 VGND VGND VPWR VPWR sky130_fd_sc_hd__fill_1
XFILLER_43_187 VPWR VGND VPWR VGND sky130_ef_sc_hd__decap_12
XTAP_TAPCELL_ROW_41_311 VGND VPWR sky130_fd_sc_hd__tapvpwrvgnd_1
XFILLER_28_195 VGND VGND VPWR VPWR sky130_fd_sc_hd__fill_1
XFILLER_3_250 VGND VGND VPWR VPWR sky130_fd_sc_hd__fill_2
X_1003_ clock_div.cycles\[24\] _0188_ _0192_ VGND VGND VPWR VPWR _0242_ sky130_fd_sc_hd__or3_1
XFILLER_34_154 VGND VGND VPWR VPWR sky130_fd_sc_hd__decap_4
XPHY_EDGE_ROW_6_Right_6 VGND VGND VPWR VPWR sky130_fd_sc_hd__decap_3
XFILLER_15_44 VPWR VGND VPWR VGND sky130_ef_sc_hd__decap_12
XFILLER_25_143 VGND VGND VPWR VPWR sky130_fd_sc_hd__decap_6
XFILLER_25_187 VPWR VGND VPWR VGND sky130_ef_sc_hd__decap_12
XFILLER_31_65 VGND VGND VPWR VPWR sky130_fd_sc_hd__decap_4
Xoutput10 net10 VGND VGND VPWR VPWR D0_SEG[3] sky130_fd_sc_hd__buf_2
Xoutput8 net8 VGND VGND VPWR VPWR D0_SEG[1] sky130_fd_sc_hd__buf_2
XFILLER_0_253 VPWR VGND VPWR VGND sky130_ef_sc_hd__decap_12
XFILLER_31_146 VGND VGND VPWR VPWR sky130_fd_sc_hd__decap_3
X_1621_ clknet_3_7__leaf_CLK_10MHZ _0027_ VGND VGND VPWR VPWR clock_div.cycles\[8\]
+ sky130_fd_sc_hd__dfxtp_2
X_1552_ net30 _0767_ _0768_ net39 clock_div.cycles\[29\] VGND VGND VPWR VPWR _0048_
+ sky130_fd_sc_hd__a32o_1
X_1483_ _0711_ _0712_ VGND VGND VPWR VPWR _0713_ sky130_fd_sc_hd__nand2_1
XFILLER_39_279 VGND VGND VPWR VPWR sky130_fd_sc_hd__fill_1
XFILLER_45_249 VPWR VGND VPWR VGND sky130_ef_sc_hd__decap_12
XFILLER_42_75 VGND VGND VPWR VPWR sky130_fd_sc_hd__fill_1
XFILLER_3_69 VPWR VGND VPWR VGND sky130_ef_sc_hd__decap_12
XFILLER_36_249 VGND VGND VPWR VPWR sky130_fd_sc_hd__decap_3
XTAP_TAPCELL_ROW_14_174 VGND VPWR sky130_fd_sc_hd__tapvpwrvgnd_1
X_0983_ _0209_ _0221_ VGND VGND VPWR VPWR _0222_ sky130_fd_sc_hd__nor2_2
Xclkbuf_3_7__f_CLK_10MHZ clknet_0_CLK_10MHZ VGND VGND VPWR VPWR clknet_3_7__leaf_CLK_10MHZ
+ sky130_fd_sc_hd__clkbuf_16
X_1604_ clknet_3_2__leaf_CLK_10MHZ net58 VGND VGND VPWR VPWR sync_ten.sync_2 sky130_fd_sc_hd__dfxtp_1
X_1535_ net36 net30 _0756_ net39 clock_div.cycles\[24\] VGND VGND VPWR VPWR _0043_
+ sky130_fd_sc_hd__a32o_1
X_1397_ _0068_ _0581_ net16 VGND VGND VPWR VPWR _0636_ sky130_fd_sc_hd__nand3_1
X_1466_ net34 _0695_ _0698_ net40 net48 VGND VGND VPWR VPWR _0032_ sky130_fd_sc_hd__a32o_1
XTAP_TAPCELL_ROW_37_288 VGND VPWR sky130_fd_sc_hd__tapvpwrvgnd_1
XFILLER_35_260 VPWR VGND VPWR VGND sky130_ef_sc_hd__decap_12
XFILLER_12_34 VGND VGND VPWR VPWR sky130_fd_sc_hd__decap_8
XTAP_TAPCELL_ROW_5_131 VGND VPWR sky130_fd_sc_hd__tapvpwrvgnd_1
XTAP_TAPCELL_ROW_28_244 VGND VPWR sky130_fd_sc_hd__tapvpwrvgnd_1
X_1320_ _0555_ _0558_ VGND VGND VPWR VPWR _0559_ sky130_fd_sc_hd__and2_1
X_1182_ _0366_ _0380_ VGND VGND VPWR VPWR _0421_ sky130_fd_sc_hd__xnor2_1
X_1251_ _0432_ _0489_ VGND VGND VPWR VPWR _0490_ sky130_fd_sc_hd__xnor2_2
XTAP_TAPCELL_ROW_19_200 VGND VPWR sky130_fd_sc_hd__tapvpwrvgnd_1
X_0897_ _0128_ _0131_ _0145_ _0129_ VGND VGND VPWR VPWR _0146_ sky130_fd_sc_hd__or4b_1
X_0966_ clock_div.cycles\[19\] net37 _0203_ VGND VGND VPWR VPWR _0205_ sky130_fd_sc_hd__and3_1
X_1449_ clock_div.cycles\[11\] _0679_ VGND VGND VPWR VPWR _0684_ sky130_fd_sc_hd__and2_1
X_1518_ _0741_ _0742_ net31 VGND VGND VPWR VPWR _0743_ sky130_fd_sc_hd__o21ai_1
XFILLER_15_219 VGND VGND VPWR VPWR sky130_fd_sc_hd__decap_4
XFILLER_23_44 VGND VGND VPWR VPWR sky130_fd_sc_hd__decap_6
XFILLER_23_55 VGND VGND VPWR VPWR sky130_fd_sc_hd__fill_1
XFILLER_23_263 VPWR VGND VPWR VGND sky130_ef_sc_hd__decap_12
XFILLER_3_3 VPWR VGND VPWR VGND sky130_ef_sc_hd__decap_12
XFILLER_2_134 VGND VGND VPWR VPWR sky130_fd_sc_hd__fill_1
XFILLER_0_15 VPWR VGND VPWR VGND sky130_ef_sc_hd__decap_12
XFILLER_9_35 VGND VGND VPWR VPWR sky130_fd_sc_hd__fill_1
X_0820_ bcd_num\[3\] bcd_num\[1\] VGND VGND VPWR VPWR _0088_ sky130_fd_sc_hd__nand2_1
X_1303_ _0478_ _0487_ _0480_ VGND VGND VPWR VPWR _0542_ sky130_fd_sc_hd__a21bo_1
X_1096_ _0329_ _0334_ VGND VGND VPWR VPWR _0335_ sky130_fd_sc_hd__or2_2
X_1165_ _0400_ _0403_ VGND VGND VPWR VPWR _0404_ sky130_fd_sc_hd__nor2_1
X_1234_ _0396_ _0463_ _0464_ _0394_ VGND VGND VPWR VPWR _0473_ sky130_fd_sc_hd__a22oi_2
XTAP_TAPCELL_ROW_22_217 VGND VPWR sky130_fd_sc_hd__tapvpwrvgnd_1
X_0949_ clock_div.cycles\[31\] _0186_ VGND VGND VPWR VPWR _0188_ sky130_fd_sc_hd__nand2_1
XFILLER_7_237 VGND VGND VPWR VPWR sky130_fd_sc_hd__decap_3
X_0803_ net44 _0073_ VGND VGND VPWR VPWR _0074_ sky130_fd_sc_hd__nand2_1
X_1148_ net26 _0386_ VGND VGND VPWR VPWR _0387_ sky130_fd_sc_hd__or2_1
X_1079_ net27 net28 VGND VGND VPWR VPWR _0318_ sky130_fd_sc_hd__and2_2
X_1217_ net25 net24 _0400_ VGND VGND VPWR VPWR _0456_ sky130_fd_sc_hd__a21oi_2
XFILLER_20_34 VGND VGND VPWR VPWR sky130_fd_sc_hd__decap_8
Xhold32 clock_div.cycles\[5\] VGND VGND VPWR VPWR net86 sky130_fd_sc_hd__dlygate4sd3_1
Xhold21 clock_div.cycles\[15\] VGND VGND VPWR VPWR net75 sky130_fd_sc_hd__dlygate4sd3_1
XFILLER_29_98 VGND VGND VPWR VPWR sky130_fd_sc_hd__fill_1
Xhold43 clock_div.cycles\[20\] VGND VGND VPWR VPWR net97 sky130_fd_sc_hd__dlygate4sd3_1
Xhold10 clock_div.cycles\[16\] VGND VGND VPWR VPWR net64 sky130_fd_sc_hd__dlygate4sd3_1
XFILLER_45_42 VGND VGND VPWR VPWR sky130_fd_sc_hd__fill_1
XFILLER_43_199 VGND VGND VPWR VPWR sky130_fd_sc_hd__decap_6
XFILLER_43_155 VGND VGND VPWR VPWR sky130_fd_sc_hd__fill_1
XTAP_TAPCELL_ROW_41_312 VGND VPWR sky130_fd_sc_hd__tapvpwrvgnd_1