* NGSPICE file created from matrix_mult.ext - technology: sky130A

* Black-box entry subcircuit for sky130_fd_sc_hd__decap_3 abstract view
.subckt sky130_fd_sc_hd__decap_3 VGND VNB VPB VPWR
.ends

* Black-box entry subcircuit for sky130_ef_sc_hd__decap_12 abstract view
.subckt sky130_ef_sc_hd__decap_12 VPWR VGND VPB VNB
.ends

* Black-box entry subcircuit for sky130_fd_sc_hd__decap_4 abstract view
.subckt sky130_fd_sc_hd__decap_4 VGND VNB VPB VPWR
.ends

* Black-box entry subcircuit for sky130_fd_sc_hd__fill_2 abstract view
.subckt sky130_fd_sc_hd__fill_2 VGND VNB VPB VPWR
.ends

* Black-box entry subcircuit for sky130_fd_sc_hd__fill_1 abstract view
.subckt sky130_fd_sc_hd__fill_1 VGND VNB VPB VPWR
.ends

* Black-box entry subcircuit for sky130_fd_sc_hd__dfstp_1 abstract view
.subckt sky130_fd_sc_hd__dfstp_1 CLK D SET_B VGND VNB VPB VPWR Q
.ends

* Black-box entry subcircuit for sky130_fd_sc_hd__tapvpwrvgnd_1 abstract view
.subckt sky130_fd_sc_hd__tapvpwrvgnd_1 VGND VPWR
.ends

* Black-box entry subcircuit for sky130_fd_sc_hd__a22oi_1 abstract view
.subckt sky130_fd_sc_hd__a22oi_1 A1 A2 B1 B2 VGND VNB VPB VPWR Y
.ends

* Black-box entry subcircuit for sky130_fd_sc_hd__dfrtp_1 abstract view
.subckt sky130_fd_sc_hd__dfrtp_1 CLK D RESET_B VGND VNB VPB VPWR Q
.ends

* Black-box entry subcircuit for sky130_fd_sc_hd__nand2_1 abstract view
.subckt sky130_fd_sc_hd__nand2_1 A B VGND VNB VPB VPWR Y
.ends

* Black-box entry subcircuit for sky130_fd_sc_hd__decap_8 abstract view
.subckt sky130_fd_sc_hd__decap_8 VGND VNB VPB VPWR
.ends

* Black-box entry subcircuit for sky130_fd_sc_hd__o31a_1 abstract view
.subckt sky130_fd_sc_hd__o31a_1 A1 A2 A3 B1 VGND VNB VPB VPWR X
.ends

* Black-box entry subcircuit for sky130_fd_sc_hd__a21oi_1 abstract view
.subckt sky130_fd_sc_hd__a21oi_1 A1 A2 B1 VGND VNB VPB VPWR Y
.ends

* Black-box entry subcircuit for sky130_fd_sc_hd__mux2_1 abstract view
.subckt sky130_fd_sc_hd__mux2_1 A0 A1 S VGND VNB VPB VPWR X
.ends

* Black-box entry subcircuit for sky130_fd_sc_hd__a22o_1 abstract view
.subckt sky130_fd_sc_hd__a22o_1 A1 A2 B1 B2 VGND VNB VPB VPWR X
.ends

* Black-box entry subcircuit for sky130_fd_sc_hd__nor2_1 abstract view
.subckt sky130_fd_sc_hd__nor2_1 A B VGND VNB VPB VPWR Y
.ends

* Black-box entry subcircuit for sky130_fd_sc_hd__or2_1 abstract view
.subckt sky130_fd_sc_hd__or2_1 A B VGND VNB VPB VPWR X
.ends

* Black-box entry subcircuit for sky130_fd_sc_hd__a2111o_1 abstract view
.subckt sky130_fd_sc_hd__a2111o_1 A1 A2 B1 C1 D1 VGND VNB VPB VPWR X
.ends

* Black-box entry subcircuit for sky130_fd_sc_hd__inv_2 abstract view
.subckt sky130_fd_sc_hd__inv_2 A VGND VNB VPB VPWR Y
.ends

* Black-box entry subcircuit for sky130_fd_sc_hd__and4_1 abstract view
.subckt sky130_fd_sc_hd__and4_1 A B C D VGND VNB VPB VPWR X
.ends

* Black-box entry subcircuit for sky130_fd_sc_hd__a211oi_1 abstract view
.subckt sky130_fd_sc_hd__a211oi_1 A1 A2 B1 C1 VGND VNB VPB VPWR Y
.ends

* Black-box entry subcircuit for sky130_fd_sc_hd__clkbuf_16 abstract view
.subckt sky130_fd_sc_hd__clkbuf_16 A VGND VNB VPB VPWR X
.ends

* Black-box entry subcircuit for sky130_fd_sc_hd__xnor2_1 abstract view
.subckt sky130_fd_sc_hd__xnor2_1 A B VGND VNB VPB VPWR Y
.ends

* Black-box entry subcircuit for sky130_fd_sc_hd__decap_6 abstract view
.subckt sky130_fd_sc_hd__decap_6 VGND VNB VPB VPWR
.ends

* Black-box entry subcircuit for sky130_fd_sc_hd__o21ai_2 abstract view
.subckt sky130_fd_sc_hd__o21ai_2 A1 A2 B1 VGND VNB VPB VPWR Y
.ends

* Black-box entry subcircuit for sky130_fd_sc_hd__conb_1 abstract view
.subckt sky130_fd_sc_hd__conb_1 VGND VNB VPB VPWR HI LO
.ends

* Black-box entry subcircuit for sky130_fd_sc_hd__and3b_1 abstract view
.subckt sky130_fd_sc_hd__and3b_1 A_N B C VGND VNB VPB VPWR X
.ends

* Black-box entry subcircuit for sky130_fd_sc_hd__or3b_1 abstract view
.subckt sky130_fd_sc_hd__or3b_1 A B C_N VGND VNB VPB VPWR X
.ends

* Black-box entry subcircuit for sky130_fd_sc_hd__o21a_1 abstract view
.subckt sky130_fd_sc_hd__o21a_1 A1 A2 B1 VGND VNB VPB VPWR X
.ends

* Black-box entry subcircuit for sky130_fd_sc_hd__xor2_1 abstract view
.subckt sky130_fd_sc_hd__xor2_1 A B VGND VNB VPB VPWR X
.ends

* Black-box entry subcircuit for sky130_fd_sc_hd__o21ba_1 abstract view
.subckt sky130_fd_sc_hd__o21ba_1 A1 A2 B1_N VGND VNB VPB VPWR X
.ends

* Black-box entry subcircuit for sky130_fd_sc_hd__and3_1 abstract view
.subckt sky130_fd_sc_hd__and3_1 A B C VGND VNB VPB VPWR X
.ends

* Black-box entry subcircuit for sky130_fd_sc_hd__a21o_1 abstract view
.subckt sky130_fd_sc_hd__a21o_1 A1 A2 B1 VGND VNB VPB VPWR X
.ends

* Black-box entry subcircuit for sky130_fd_sc_hd__o21bai_1 abstract view
.subckt sky130_fd_sc_hd__o21bai_1 A1 A2 B1_N VGND VNB VPB VPWR Y
.ends

* Black-box entry subcircuit for sky130_fd_sc_hd__a211o_1 abstract view
.subckt sky130_fd_sc_hd__a211o_1 A1 A2 B1 C1 VGND VNB VPB VPWR X
.ends

* Black-box entry subcircuit for sky130_fd_sc_hd__o2111a_1 abstract view
.subckt sky130_fd_sc_hd__o2111a_1 A1 A2 B1 C1 D1 VGND VNB VPB VPWR X
.ends

* Black-box entry subcircuit for sky130_fd_sc_hd__dlygate4sd3_1 abstract view
.subckt sky130_fd_sc_hd__dlygate4sd3_1 A VGND VNB VPB VPWR X
.ends

* Black-box entry subcircuit for sky130_fd_sc_hd__a2111oi_1 abstract view
.subckt sky130_fd_sc_hd__a2111oi_1 A1 A2 B1 C1 D1 VGND VNB VPB VPWR Y
.ends

* Black-box entry subcircuit for sky130_fd_sc_hd__and2b_1 abstract view
.subckt sky130_fd_sc_hd__and2b_1 A_N B VGND VNB VPB VPWR X
.ends

* Black-box entry subcircuit for sky130_fd_sc_hd__and4bb_1 abstract view
.subckt sky130_fd_sc_hd__and4bb_1 A_N B_N C D VGND VNB VPB VPWR X
.ends

* Black-box entry subcircuit for sky130_fd_sc_hd__a31o_1 abstract view
.subckt sky130_fd_sc_hd__a31o_1 A1 A2 A3 B1 VGND VNB VPB VPWR X
.ends

* Black-box entry subcircuit for sky130_fd_sc_hd__and2_1 abstract view
.subckt sky130_fd_sc_hd__and2_1 A B VGND VNB VPB VPWR X
.ends

* Black-box entry subcircuit for sky130_fd_sc_hd__o2111ai_1 abstract view
.subckt sky130_fd_sc_hd__o2111ai_1 A1 A2 B1 C1 D1 VGND VNB VPB VPWR Y
.ends

* Black-box entry subcircuit for sky130_fd_sc_hd__nand2b_1 abstract view
.subckt sky130_fd_sc_hd__nand2b_1 A_N B VGND VNB VPB VPWR Y
.ends

* Black-box entry subcircuit for sky130_fd_sc_hd__or3_1 abstract view
.subckt sky130_fd_sc_hd__or3_1 A B C VGND VNB VPB VPWR X
.ends

* Black-box entry subcircuit for sky130_fd_sc_hd__nor3b_2 abstract view
.subckt sky130_fd_sc_hd__nor3b_2 A B C_N VGND VNB VPB VPWR Y
.ends

* Black-box entry subcircuit for sky130_fd_sc_hd__a2bb2o_1 abstract view
.subckt sky130_fd_sc_hd__a2bb2o_1 A1_N A2_N B1 B2 VGND VNB VPB VPWR X
.ends

* Black-box entry subcircuit for sky130_fd_sc_hd__inv_4 abstract view
.subckt sky130_fd_sc_hd__inv_4 A VGND VNB VPB VPWR Y
.ends

* Black-box entry subcircuit for sky130_fd_sc_hd__clkbuf_8 abstract view
.subckt sky130_fd_sc_hd__clkbuf_8 A VGND VNB VPB VPWR X
.ends

* Black-box entry subcircuit for sky130_fd_sc_hd__o221a_1 abstract view
.subckt sky130_fd_sc_hd__o221a_1 A1 A2 B1 B2 C1 VGND VNB VPB VPWR X
.ends

* Black-box entry subcircuit for sky130_fd_sc_hd__or4_1 abstract view
.subckt sky130_fd_sc_hd__or4_1 A B C D VGND VNB VPB VPWR X
.ends

* Black-box entry subcircuit for sky130_fd_sc_hd__clkinv_2 abstract view
.subckt sky130_fd_sc_hd__clkinv_2 A VGND VNB VPB VPWR Y
.ends

* Black-box entry subcircuit for sky130_fd_sc_hd__o21ai_1 abstract view
.subckt sky130_fd_sc_hd__o21ai_1 A1 A2 B1 VGND VNB VPB VPWR Y
.ends

* Black-box entry subcircuit for sky130_fd_sc_hd__clkinv_4 abstract view
.subckt sky130_fd_sc_hd__clkinv_4 A VGND VNB VPB VPWR Y
.ends

* Black-box entry subcircuit for sky130_fd_sc_hd__or4b_1 abstract view
.subckt sky130_fd_sc_hd__or4b_1 A B C D_N VGND VNB VPB VPWR X
.ends

* Black-box entry subcircuit for sky130_fd_sc_hd__inv_8 abstract view
.subckt sky130_fd_sc_hd__inv_8 A VGND VNB VPB VPWR Y
.ends

* Black-box entry subcircuit for sky130_fd_sc_hd__dfrtp_4 abstract view
.subckt sky130_fd_sc_hd__dfrtp_4 CLK D RESET_B VGND VNB VPB VPWR Q
.ends

* Black-box entry subcircuit for sky130_fd_sc_hd__o211a_1 abstract view
.subckt sky130_fd_sc_hd__o211a_1 A1 A2 B1 C1 VGND VNB VPB VPWR X
.ends

* Black-box entry subcircuit for sky130_fd_sc_hd__clkbuf_4 abstract view
.subckt sky130_fd_sc_hd__clkbuf_4 A VGND VNB VPB VPWR X
.ends

* Black-box entry subcircuit for sky130_fd_sc_hd__inv_6 abstract view
.subckt sky130_fd_sc_hd__inv_6 A VGND VNB VPB VPWR Y
.ends

* Black-box entry subcircuit for sky130_fd_sc_hd__buf_2 abstract view
.subckt sky130_fd_sc_hd__buf_2 A VGND VNB VPB VPWR X
.ends

* Black-box entry subcircuit for sky130_fd_sc_hd__clkbuf_2 abstract view
.subckt sky130_fd_sc_hd__clkbuf_2 A VGND VNB VPB VPWR X
.ends

* Black-box entry subcircuit for sky130_fd_sc_hd__o2bb2a_1 abstract view
.subckt sky130_fd_sc_hd__o2bb2a_1 A1_N A2_N B1 B2 VGND VNB VPB VPWR X
.ends

* Black-box entry subcircuit for sky130_fd_sc_hd__buf_1 abstract view
.subckt sky130_fd_sc_hd__buf_1 A VGND VNB VPB VPWR X
.ends

* Black-box entry subcircuit for sky130_fd_sc_hd__nor3b_1 abstract view
.subckt sky130_fd_sc_hd__nor3b_1 A B C_N VGND VNB VPB VPWR Y
.ends

* Black-box entry subcircuit for sky130_fd_sc_hd__nor2_4 abstract view
.subckt sky130_fd_sc_hd__nor2_4 A B VGND VNB VPB VPWR Y
.ends

* Black-box entry subcircuit for sky130_fd_sc_hd__nand3_1 abstract view
.subckt sky130_fd_sc_hd__nand3_1 A B C VGND VNB VPB VPWR Y
.ends

* Black-box entry subcircuit for sky130_fd_sc_hd__and3b_4 abstract view
.subckt sky130_fd_sc_hd__and3b_4 A_N B C VGND VNB VPB VPWR X
.ends

* Black-box entry subcircuit for sky130_fd_sc_hd__dfstp_2 abstract view
.subckt sky130_fd_sc_hd__dfstp_2 CLK D SET_B VGND VNB VPB VPWR Q
.ends

* Black-box entry subcircuit for sky130_fd_sc_hd__nand2b_2 abstract view
.subckt sky130_fd_sc_hd__nand2b_2 A_N B VGND VNB VPB VPWR Y
.ends

* Black-box entry subcircuit for sky130_fd_sc_hd__dfrtp_2 abstract view
.subckt sky130_fd_sc_hd__dfrtp_2 CLK D RESET_B VGND VNB VPB VPWR Q
.ends

* Black-box entry subcircuit for sky130_fd_sc_hd__clkbuf_1 abstract view
.subckt sky130_fd_sc_hd__clkbuf_1 A VGND VNB VPB VPWR X
.ends

* Black-box entry subcircuit for sky130_fd_sc_hd__a32o_1 abstract view
.subckt sky130_fd_sc_hd__a32o_1 A1 A2 A3 B1 B2 VGND VNB VPB VPWR X
.ends

* Black-box entry subcircuit for sky130_fd_sc_hd__nand4_1 abstract view
.subckt sky130_fd_sc_hd__nand4_1 A B C D VGND VNB VPB VPWR Y
.ends

* Black-box entry subcircuit for sky130_fd_sc_hd__nor3_1 abstract view
.subckt sky130_fd_sc_hd__nor3_1 A B C VGND VNB VPB VPWR Y
.ends

* Black-box entry subcircuit for sky130_fd_sc_hd__or2_2 abstract view
.subckt sky130_fd_sc_hd__or2_2 A B VGND VNB VPB VPWR X
.ends

* Black-box entry subcircuit for sky130_fd_sc_hd__a41o_1 abstract view
.subckt sky130_fd_sc_hd__a41o_1 A1 A2 A3 A4 B1 VGND VNB VPB VPWR X
.ends

* Black-box entry subcircuit for sky130_fd_sc_hd__a221oi_1 abstract view
.subckt sky130_fd_sc_hd__a221oi_1 A1 A2 B1 B2 C1 VGND VNB VPB VPWR Y
.ends

* Black-box entry subcircuit for sky130_fd_sc_hd__o311a_1 abstract view
.subckt sky130_fd_sc_hd__o311a_1 A1 A2 A3 B1 C1 VGND VNB VPB VPWR X
.ends

* Black-box entry subcircuit for sky130_fd_sc_hd__nor2_2 abstract view
.subckt sky130_fd_sc_hd__nor2_2 A B VGND VNB VPB VPWR Y
.ends

* Black-box entry subcircuit for sky130_fd_sc_hd__o211ai_1 abstract view
.subckt sky130_fd_sc_hd__o211ai_1 A1 A2 B1 C1 VGND VNB VPB VPWR Y
.ends

* Black-box entry subcircuit for sky130_fd_sc_hd__or4bb_1 abstract view
.subckt sky130_fd_sc_hd__or4bb_1 A B C_N D_N VGND VNB VPB VPWR X
.ends

* Black-box entry subcircuit for sky130_fd_sc_hd__a21bo_1 abstract view
.subckt sky130_fd_sc_hd__a21bo_1 A1 A2 B1_N VGND VNB VPB VPWR X
.ends

* Black-box entry subcircuit for sky130_fd_sc_hd__a31oi_2 abstract view
.subckt sky130_fd_sc_hd__a31oi_2 A1 A2 A3 B1 VGND VNB VPB VPWR Y
.ends

.subckt matrix_mult VGND VPWR bit_period[0] bit_period[10] bit_period[11] bit_period[12]
+ bit_period[13] bit_period[1] bit_period[2] bit_period[3] bit_period[4] bit_period[5]
+ bit_period[6] bit_period[7] bit_period[8] bit_period[9] clk confirmation data_read
+ n_rst serial_in serial_out tx_busy
XFILLER_39_211 VGND VGND VPWR VPWR sky130_fd_sc_hd__decap_3
XFILLER_13_122 VPWR VGND VPWR VGND sky130_ef_sc_hd__decap_12
XFILLER_26_41 VGND VGND VPWR VPWR sky130_fd_sc_hd__decap_4
XFILLER_13_199 VGND VGND VPWR VPWR sky130_fd_sc_hd__fill_2
XFILLER_36_203 VGND VGND VPWR VPWR sky130_fd_sc_hd__fill_1
X_0985_ clknet_3_1__leaf_clk _0035_ net29 VGND VGND VPWR VPWR parallel_out1\[6\] sky130_fd_sc_hd__dfstp_1
XFILLER_42_217 VPWR VGND VPWR VGND sky130_ef_sc_hd__decap_12
XFILLER_27_225 VPWR VGND VPWR VGND sky130_ef_sc_hd__decap_12
XFILLER_12_98 VGND VGND VPWR VPWR sky130_fd_sc_hd__fill_1
XTAP_TAPCELL_ROW_20_186 VGND VPWR sky130_fd_sc_hd__tapvpwrvgnd_1
XFILLER_37_40 VPWR VGND VPWR VGND sky130_ef_sc_hd__decap_12
XTAP_TAPCELL_ROW_28_220 VGND VPWR sky130_fd_sc_hd__tapvpwrvgnd_1
XTAP_TAPCELL_ROW_43_289 VGND VPWR sky130_fd_sc_hd__tapvpwrvgnd_1
XFILLER_33_206 VGND VGND VPWR VPWR sky130_fd_sc_hd__decap_4
X_0770_ parallel_out2\[0\] parallel_out2\[6\] parallel_out2\[1\] parallel_out2\[5\]
+ VGND VGND VPWR VPWR _0333_ sky130_fd_sc_hd__a22oi_1
XTAP_TAPCELL_ROW_11_142 VGND VPWR sky130_fd_sc_hd__tapvpwrvgnd_1
X_0968_ clknet_3_6__leaf_clk uart_rcv.tim.clock_count.next_cnt_out\[13\] net38 VGND
+ VGND VPWR VPWR uart_rcv.tim.clk_cnt\[13\] sky130_fd_sc_hd__dfrtp_1
XTAP_TAPCELL_ROW_34_245 VGND VPWR sky130_fd_sc_hd__tapvpwrvgnd_1
X_0899_ _0426_ _0429_ VGND VGND VPWR VPWR _0430_ sky130_fd_sc_hd__nand2_1
XFILLER_2_187 VGND VGND VPWR VPWR sky130_fd_sc_hd__decap_8
XFILLER_2_121 VPWR VGND VPWR VGND sky130_ef_sc_hd__decap_12
XFILLER_0_57 VPWR VGND VPWR VGND sky130_ef_sc_hd__decap_12
X_0822_ _0063_ net15 _0167_ _0375_ VGND VGND VPWR VPWR _0378_ sky130_fd_sc_hd__o31a_1
X_0684_ _0256_ _0267_ _0257_ VGND VGND VPWR VPWR _0268_ sky130_fd_sc_hd__a21oi_1
X_0753_ rx_data\[6\] uart_rcv.data_buff.packet_data\[6\] _0321_ VGND VGND VPWR VPWR
+ _0011_ sky130_fd_sc_hd__mux2_1
XFILLER_20_253 VGND VGND VPWR VPWR sky130_fd_sc_hd__fill_2
XFILLER_34_74 VGND VGND VPWR VPWR sky130_fd_sc_hd__decap_4
XFILLER_34_85 VGND VGND VPWR VPWR sky130_fd_sc_hd__decap_4
XFILLER_7_257 VGND VGND VPWR VPWR sky130_fd_sc_hd__fill_2
XFILLER_38_128 VGND VGND VPWR VPWR sky130_fd_sc_hd__fill_1
X_1021_ clknet_3_7__leaf_clk uart_tx.count.next_cnt_out\[9\] net39 VGND VGND VPWR
+ VPWR uart_tx.clk_cnt\[9\] sky130_fd_sc_hd__dfrtp_1
X_0805_ parallel_out2\[7\] parallel_out2\[2\] parallel_out2\[6\] parallel_out2\[3\]
+ VGND VGND VPWR VPWR _0365_ sky130_fd_sc_hd__a22o_1
X_0667_ _0248_ _0249_ VGND VGND VPWR VPWR _0251_ sky130_fd_sc_hd__nor2_1
X_0736_ _0313_ _0315_ VGND VGND VPWR VPWR uart_rcv.control.next_state\[2\] sky130_fd_sc_hd__or2_1
X_0598_ _0070_ uart_tx.clk_cnt\[12\] _0186_ _0188_ _0190_ VGND VGND VPWR VPWR _0197_
+ sky130_fd_sc_hd__a2111o_1
XFILLER_29_106 VGND VGND VPWR VPWR sky130_fd_sc_hd__fill_1
XFILLER_43_197 VPWR VGND VPWR VGND sky130_ef_sc_hd__decap_12
X_0452_ net45 VGND VGND VPWR VPWR _0072_ sky130_fd_sc_hd__inv_2
X_0521_ uart_rcv.tim.clk_cnt\[4\] uart_rcv.tim.clk_cnt\[5\] uart_rcv.tim.clk_cnt\[6\]
+ _0124_ VGND VGND VPWR VPWR _0130_ sky130_fd_sc_hd__and4_1
XFILLER_13_3 VPWR VGND VPWR VGND sky130_ef_sc_hd__decap_12
X_1004_ clknet_3_2__leaf_clk _0054_ net31 VGND VGND VPWR VPWR uart_rcv.data_buff.packet_data\[1\]
+ sky130_fd_sc_hd__dfstp_1
X_0719_ _0258_ _0259_ VGND VGND VPWR VPWR _0302_ sky130_fd_sc_hd__nand2_1
XFILLER_17_109 VGND VGND VPWR VPWR sky130_fd_sc_hd__decap_3
XFILLER_15_65 VGND VGND VPWR VPWR sky130_fd_sc_hd__decap_3
XFILLER_16_197 VGND VGND VPWR VPWR sky130_fd_sc_hd__decap_8
XFILLER_31_167 VGND VGND VPWR VPWR sky130_fd_sc_hd__fill_1
X_0504_ _0115_ _0117_ _0118_ uart_rcv.control.packet_done VGND VGND VPWR VPWR uart_rcv.tim.clock_count.next_cnt_out\[0\]
+ sky130_fd_sc_hd__a211oi_1
XTAP_TAPCELL_ROW_17_170 VGND VPWR sky130_fd_sc_hd__tapvpwrvgnd_1
XFILLER_13_134 VGND VGND VPWR VPWR sky130_fd_sc_hd__fill_1
Xclkbuf_3_6__f_clk clknet_0_clk VGND VGND VPWR VPWR clknet_3_6__leaf_clk sky130_fd_sc_hd__clkbuf_16
XFILLER_9_127 VGND VGND VPWR VPWR sky130_fd_sc_hd__fill_2
XFILLER_3_57 VPWR VGND VPWR VGND sky130_ef_sc_hd__decap_12
X_0984_ clknet_3_1__leaf_clk _0034_ net29 VGND VGND VPWR VPWR parallel_out1\[5\] sky130_fd_sc_hd__dfstp_1
XTAP_TAPCELL_ROW_6_119 VGND VPWR sky130_fd_sc_hd__tapvpwrvgnd_1
XFILLER_42_229 VPWR VGND VPWR VGND sky130_ef_sc_hd__decap_12
XFILLER_27_237 VPWR VGND VPWR VGND sky130_ef_sc_hd__decap_12
XFILLER_37_52 VGND VGND VPWR VPWR sky130_fd_sc_hd__decap_4
XTAP_TAPCELL_ROW_28_221 VGND VPWR sky130_fd_sc_hd__tapvpwrvgnd_1
XFILLER_5_163 VGND VGND VPWR VPWR sky130_fd_sc_hd__decap_4
XTAP_TAPCELL_ROW_11_143 VGND VPWR sky130_fd_sc_hd__tapvpwrvgnd_1
XTAP_TAPCELL_ROW_34_246 VGND VPWR sky130_fd_sc_hd__tapvpwrvgnd_1
X_0967_ clknet_3_6__leaf_clk uart_rcv.tim.clock_count.next_cnt_out\[12\] net38 VGND
+ VGND VPWR VPWR uart_rcv.tim.clk_cnt\[12\] sky130_fd_sc_hd__dfrtp_1
XPHY_EDGE_ROW_12_Right_12 VGND VGND VPWR VPWR sky130_fd_sc_hd__decap_3
X_0898_ _0427_ _0428_ VGND VGND VPWR VPWR _0429_ sky130_fd_sc_hd__xnor2_1
XFILLER_15_207 VGND VGND VPWR VPWR sky130_fd_sc_hd__decap_3
XPHY_EDGE_ROW_21_Right_21 VGND VGND VPWR VPWR sky130_fd_sc_hd__decap_3
XFILLER_15_229 VGND VGND VPWR VPWR sky130_fd_sc_hd__fill_1
XPHY_EDGE_ROW_30_Right_30 VGND VGND VPWR VPWR sky130_fd_sc_hd__decap_3
XFILLER_2_133 VGND VGND VPWR VPWR sky130_fd_sc_hd__decap_6
XFILLER_2_144 VGND VGND VPWR VPWR sky130_fd_sc_hd__decap_4
XFILLER_0_69 VPWR VGND VPWR VGND sky130_ef_sc_hd__decap_12
X_0821_ _0080_ _0323_ _0376_ _0063_ VGND VGND VPWR VPWR _0377_ sky130_fd_sc_hd__a22o_1
X_0752_ rx_data\[5\] uart_rcv.data_buff.packet_data\[5\] _0321_ VGND VGND VPWR VPWR
+ _0010_ sky130_fd_sc_hd__mux2_1
XFILLER_43_3 VPWR VGND VPWR VGND sky130_ef_sc_hd__decap_12
X_0683_ prod_adder.gen_for_loop\[3\].adder_n.b _0265_ _0266_ VGND VGND VPWR VPWR _0267_
+ sky130_fd_sc_hd__o21ai_2
XTAP_TAPCELL_ROW_0_90 VGND VPWR sky130_fd_sc_hd__tapvpwrvgnd_1
XFILLER_7_225 VPWR VGND VPWR VGND sky130_ef_sc_hd__decap_12
XFILLER_11_221 VGND VGND VPWR VPWR sky130_fd_sc_hd__decap_3
Xmatrix_mult_40 VGND VGND VPWR VPWR matrix_mult_40/HI tx_busy sky130_fd_sc_hd__conb_1
X_1020_ clknet_3_7__leaf_clk uart_tx.count.next_cnt_out\[8\] net37 VGND VGND VPWR
+ VPWR uart_tx.clk_cnt\[8\] sky130_fd_sc_hd__dfrtp_1
X_0804_ _0359_ _0363_ VGND VGND VPWR VPWR _0364_ sky130_fd_sc_hd__xnor2_1
X_0735_ uart_rcv.control.state\[2\] uart_rcv.control.state\[0\] uart_rcv.control.state\[1\]
+ VGND VGND VPWR VPWR _0315_ sky130_fd_sc_hd__and3b_1
X_0666_ uart_tx.tx_ctrl.state\[0\] uart_tx.tx_ctrl.state\[1\] VGND VGND VPWR VPWR
+ _0250_ sky130_fd_sc_hd__or2_1
X_0597_ _0193_ _0194_ _0195_ VGND VGND VPWR VPWR _0196_ sky130_fd_sc_hd__or3b_1
XFILLER_43_154 VGND VGND VPWR VPWR sky130_fd_sc_hd__decap_3
XFILLER_43_132 VGND VGND VPWR VPWR sky130_fd_sc_hd__decap_4
XFILLER_6_24 VGND VGND VPWR VPWR sky130_fd_sc_hd__decap_4
X_0451_ net5 VGND VGND VPWR VPWR _0071_ sky130_fd_sc_hd__inv_2
X_0520_ _0128_ _0129_ net21 VGND VGND VPWR VPWR uart_rcv.tim.clock_count.next_cnt_out\[5\]
+ sky130_fd_sc_hd__and3b_1
X_1003_ clknet_3_2__leaf_clk _0053_ net31 VGND VGND VPWR VPWR uart_rcv.data_buff.packet_data\[0\]
+ sky130_fd_sc_hd__dfstp_1
XFILLER_34_187 VGND VGND VPWR VPWR sky130_fd_sc_hd__decap_4
XPHY_EDGE_ROW_6_Right_6 VGND VGND VPWR VPWR sky130_fd_sc_hd__decap_3
X_0718_ prod_adder.gen_for_loop\[0\].adder_n.b prod_adder.gen_for_loop\[0\].adder_n.a
+ _0296_ VGND VGND VPWR VPWR _0301_ sky130_fd_sc_hd__o21a_1
X_0649_ net9 uart_tx.count.next_cnt_out\[4\] VGND VGND VPWR VPWR _0234_ sky130_fd_sc_hd__xor2_1
XFILLER_40_113 VGND VGND VPWR VPWR sky130_fd_sc_hd__decap_8
XFILLER_25_154 VGND VGND VPWR VPWR sky130_fd_sc_hd__fill_2
XFILLER_25_187 VGND VGND VPWR VPWR sky130_fd_sc_hd__fill_1
XFILLER_0_253 VGND VGND VPWR VPWR sky130_fd_sc_hd__decap_6
XFILLER_31_113 VGND VGND VPWR VPWR sky130_fd_sc_hd__decap_6
XFILLER_31_157 VGND VGND VPWR VPWR sky130_fd_sc_hd__fill_1
X_0503_ uart_rcv.tim.clk_cnt\[0\] _0116_ VGND VGND VPWR VPWR _0118_ sky130_fd_sc_hd__nor2_1
XTAP_TAPCELL_ROW_17_171 VGND VPWR sky130_fd_sc_hd__tapvpwrvgnd_1
XFILLER_22_146 VGND VGND VPWR VPWR sky130_fd_sc_hd__decap_3
XTAP_TAPCELL_ROW_23_196 VGND VPWR sky130_fd_sc_hd__tapvpwrvgnd_1
XFILLER_3_69 VPWR VGND VPWR VGND sky130_ef_sc_hd__decap_12
X_0983_ clknet_3_1__leaf_clk _0033_ net29 VGND VGND VPWR VPWR parallel_out1\[4\] sky130_fd_sc_hd__dfstp_1
XFILLER_27_249 VGND VGND VPWR VPWR sky130_fd_sc_hd__decap_8
XPHY_EDGE_ROW_19_Left_63 VGND VGND VPWR VPWR sky130_fd_sc_hd__decap_3
XFILLER_10_127 VGND VGND VPWR VPWR sky130_fd_sc_hd__fill_1
XTAP_TAPCELL_ROW_28_222 VGND VPWR sky130_fd_sc_hd__tapvpwrvgnd_1
XTAP_TAPCELL_ROW_11_144 VGND VPWR sky130_fd_sc_hd__tapvpwrvgnd_1
XFILLER_5_120 VGND VGND VPWR VPWR sky130_fd_sc_hd__decap_8
XTAP_TAPCELL_ROW_34_247 VGND VPWR sky130_fd_sc_hd__tapvpwrvgnd_1
X_0966_ clknet_3_6__leaf_clk uart_rcv.tim.clock_count.next_cnt_out\[11\] net33 VGND
+ VGND VPWR VPWR uart_rcv.tim.clk_cnt\[11\] sky130_fd_sc_hd__dfrtp_1
X_0897_ _0416_ _0420_ _0417_ VGND VGND VPWR VPWR _0428_ sky130_fd_sc_hd__o21ba_1
XTAP_TAPCELL_ROW_2_101 VGND VPWR sky130_fd_sc_hd__tapvpwrvgnd_1
XPHY_EDGE_ROW_4_Left_48 VGND VGND VPWR VPWR sky130_fd_sc_hd__decap_3
XFILLER_23_11 VGND VGND VPWR VPWR sky130_fd_sc_hd__decap_3
XFILLER_23_44 VPWR VGND VPWR VGND sky130_ef_sc_hd__decap_12
XFILLER_23_66 VGND VGND VPWR VPWR sky130_fd_sc_hd__decap_3
XFILLER_3_3 VPWR VGND VPWR VGND sky130_ef_sc_hd__decap_12
XFILLER_0_15 VPWR VGND VPWR VGND sky130_ef_sc_hd__decap_12
XFILLER_9_24 VGND VGND VPWR VPWR sky130_fd_sc_hd__decap_8
XFILLER_9_57 VGND VGND VPWR VPWR sky130_fd_sc_hd__fill_2
XFILLER_9_46 VGND VGND VPWR VPWR sky130_fd_sc_hd__fill_2
X_0820_ _0079_ _0080_ _0166_ VGND VGND VPWR VPWR _0376_ sky130_fd_sc_hd__and3_1
X_0751_ rx_data\[4\] uart_rcv.data_buff.packet_data\[4\] _0321_ VGND VGND VPWR VPWR
+ _0009_ sky130_fd_sc_hd__mux2_1
XTAP_TAPCELL_ROW_0_91 VGND VPWR sky130_fd_sc_hd__tapvpwrvgnd_1
X_0682_ _0263_ _0264_ prod_adder.gen_for_loop\[3\].adder_n.a VGND VGND VPWR VPWR _0266_
+ sky130_fd_sc_hd__a21o_1
XFILLER_36_3 VPWR VGND VPWR VGND sky130_ef_sc_hd__decap_12
X_0949_ clknet_3_5__leaf_clk _0022_ net35 VGND VGND VPWR VPWR prod_adder.gen_for_loop\[7\].adder_n.b
+ sky130_fd_sc_hd__dfstp_1
XFILLER_7_237 VPWR VGND VPWR VGND sky130_ef_sc_hd__decap_12
X_0803_ _0351_ _0353_ _0352_ VGND VGND VPWR VPWR _0363_ sky130_fd_sc_hd__o21bai_1
X_0665_ uart_tx.tx_ctrl.state\[0\] uart_tx.tx_ctrl.state\[1\] VGND VGND VPWR VPWR
+ _0249_ sky130_fd_sc_hd__nor2_1
X_0734_ uart_rcv.control.packet_done _0116_ _0313_ _0314_ VGND VGND VPWR VPWR uart_rcv.control.next_state\[0\]
+ sky130_fd_sc_hd__a211o_1
X_0596_ _0071_ uart_tx.clk_cnt\[13\] _0179_ _0189_ _0191_ VGND VGND VPWR VPWR _0195_
+ sky130_fd_sc_hd__o2111a_1
Xhold10 uart_rcv.shift_strobe VGND VGND VPWR VPWR net50 sky130_fd_sc_hd__dlygate4sd3_1
XFILLER_28_141 VGND VGND VPWR VPWR sky130_fd_sc_hd__decap_4
XFILLER_29_54 VGND VGND VPWR VPWR sky130_fd_sc_hd__fill_2
XFILLER_29_65 VGND VGND VPWR VPWR sky130_fd_sc_hd__fill_2
XFILLER_43_177 VGND VGND VPWR VPWR sky130_fd_sc_hd__fill_1
XFILLER_43_111 VGND VGND VPWR VPWR sky130_fd_sc_hd__fill_1
XPHY_EDGE_ROW_7_Left_51 VGND VGND VPWR VPWR sky130_fd_sc_hd__decap_3
X_0450_ net4 VGND VGND VPWR VPWR _0070_ sky130_fd_sc_hd__inv_2
X_1002_ clknet_3_4__leaf_clk _0052_ net35 VGND VGND VPWR VPWR prod_adder.gen_for_loop\[7\].adder_n.a
+ sky130_fd_sc_hd__dfstp_1
XFILLER_34_111 VPWR VGND VPWR VGND sky130_ef_sc_hd__decap_12
X_0717_ _0251_ _0273_ _0287_ _0297_ _0003_ VGND VGND VPWR VPWR _0300_ sky130_fd_sc_hd__a2111oi_1
X_0648_ _0064_ uart_tx.count.next_cnt_out\[3\] VGND VGND VPWR VPWR _0233_ sky130_fd_sc_hd__xnor2_1
X_0579_ uart_tx.clk_cnt\[12\] net4 VGND VGND VPWR VPWR _0178_ sky130_fd_sc_hd__and2b_1
XFILLER_15_89 VPWR VGND VPWR VGND sky130_ef_sc_hd__decap_12
XFILLER_25_133 VGND VGND VPWR VPWR sky130_fd_sc_hd__fill_2
XFILLER_25_144 VGND VGND VPWR VPWR sky130_fd_sc_hd__decap_3
XFILLER_31_11 VGND VGND VPWR VPWR sky130_fd_sc_hd__fill_1
XPHY_EDGE_ROW_33_Left_77 VGND VGND VPWR VPWR sky130_fd_sc_hd__decap_3
XFILLER_0_221 VGND VGND VPWR VPWR sky130_fd_sc_hd__decap_3
XFILLER_31_169 VPWR VGND VPWR VGND sky130_ef_sc_hd__decap_12
X_0502_ uart_rcv.control.state\[0\] uart_rcv.control.state\[2\] uart_rcv.tim.clk_cnt\[0\]
+ uart_rcv.control.state\[1\] VGND VGND VPWR VPWR _0117_ sky130_fd_sc_hd__and4bb_1
XTAP_TAPCELL_ROW_17_172 VGND VPWR sky130_fd_sc_hd__tapvpwrvgnd_1
XFILLER_42_43 VGND VGND VPWR VPWR sky130_fd_sc_hd__decap_4
XFILLER_9_107 VGND VGND VPWR VPWR sky130_fd_sc_hd__decap_4
XTAP_TAPCELL_ROW_23_197 VGND VPWR sky130_fd_sc_hd__tapvpwrvgnd_1
XFILLER_3_15 VPWR VGND VPWR VGND sky130_ef_sc_hd__decap_12
X_0982_ clknet_3_1__leaf_clk _0032_ net29 VGND VGND VPWR VPWR parallel_out1\[3\] sky130_fd_sc_hd__dfstp_1
XFILLER_27_206 VPWR VGND VPWR VGND sky130_ef_sc_hd__decap_12
XFILLER_10_139 VGND VGND VPWR VPWR sky130_fd_sc_hd__fill_1
XFILLER_12_57 VGND VGND VPWR VPWR sky130_fd_sc_hd__fill_1
XFILLER_12_79 VGND VGND VPWR VPWR sky130_fd_sc_hd__decap_4
XFILLER_41_220 VGND VGND VPWR VPWR sky130_fd_sc_hd__decap_4
XTAP_TAPCELL_ROW_11_145 VGND VPWR sky130_fd_sc_hd__tapvpwrvgnd_1
XPHY_EDGE_ROW_36_Left_80 VGND VGND VPWR VPWR sky130_fd_sc_hd__decap_3
XPHY_EDGE_ROW_20_Left_64 VGND VGND VPWR VPWR sky130_fd_sc_hd__decap_3
XTAP_TAPCELL_ROW_42_281 VGND VPWR sky130_fd_sc_hd__tapvpwrvgnd_1
XFILLER_32_253 VGND VGND VPWR VPWR sky130_fd_sc_hd__decap_6
XTAP_TAPCELL_ROW_34_248 VGND VPWR sky130_fd_sc_hd__tapvpwrvgnd_1
X_0896_ parallel_out1\[2\] parallel_out1\[5\] _0413_ _0412_ VGND VGND VPWR VPWR _0427_
+ sky130_fd_sc_hd__a31o_1
X_0965_ clknet_3_6__leaf_clk uart_rcv.tim.clock_count.next_cnt_out\[10\] net38 VGND
+ VGND VPWR VPWR uart_rcv.tim.clk_cnt\[10\] sky130_fd_sc_hd__dfrtp_1
XTAP_TAPCELL_ROW_2_102 VGND VPWR sky130_fd_sc_hd__tapvpwrvgnd_1
XFILLER_23_220 VGND VGND VPWR VPWR sky130_fd_sc_hd__fill_1
XFILLER_23_231 VGND VGND VPWR VPWR sky130_fd_sc_hd__fill_1
XFILLER_0_27 VGND VGND VPWR VPWR sky130_fd_sc_hd__fill_1
XFILLER_14_253 VGND VGND VPWR VPWR sky130_fd_sc_hd__decap_6
X_0750_ rx_data\[3\] uart_rcv.data_buff.packet_data\[3\] _0321_ VGND VGND VPWR VPWR
+ _0008_ sky130_fd_sc_hd__mux2_1
X_0681_ prod_adder.gen_for_loop\[3\].adder_n.a _0263_ _0264_ VGND VGND VPWR VPWR _0265_
+ sky130_fd_sc_hd__and3_1
XTAP_TAPCELL_ROW_0_92 VGND VPWR sky130_fd_sc_hd__tapvpwrvgnd_1
XFILLER_29_3 VPWR VGND VPWR VGND sky130_ef_sc_hd__decap_12
X_0948_ clknet_3_4__leaf_clk _0021_ net35 VGND VGND VPWR VPWR prod_adder.gen_for_loop\[6\].adder_n.b
+ sky130_fd_sc_hd__dfstp_1
X_0879_ parallel_out1\[2\] parallel_out1\[5\] VGND VGND VPWR VPWR _0411_ sky130_fd_sc_hd__nand2_1
XFILLER_7_249 VGND VGND VPWR VPWR sky130_fd_sc_hd__decap_8
XFILLER_38_109 VGND VGND VPWR VPWR sky130_fd_sc_hd__fill_1
X_0802_ parallel_out2\[7\] parallel_out2\[3\] parallel_out2\[2\] parallel_out2\[6\]
+ VGND VGND VPWR VPWR _0362_ sky130_fd_sc_hd__and4_1
X_0664_ uart_tx.tx_ctrl.state\[0\] uart_tx.tx_ctrl.state\[1\] VGND VGND VPWR VPWR
+ _0248_ sky130_fd_sc_hd__and2_1
X_0733_ uart_rcv.control.state\[2\] uart_rcv.sbd.new_sample uart_rcv.sbd.old_sample
+ _0312_ VGND VGND VPWR VPWR _0314_ sky130_fd_sc_hd__and4bb_1
X_0595_ _0065_ uart_tx.clk_cnt\[6\] _0177_ _0184_ _0185_ VGND VGND VPWR VPWR _0194_
+ sky130_fd_sc_hd__o2111ai_1
XFILLER_1_81 VPWR VGND VPWR VGND sky130_ef_sc_hd__decap_12
Xhold11 uart_rcv.tim.bit_count.next_cnt_out\[0\] VGND VGND VPWR VPWR net51 sky130_fd_sc_hd__dlygate4sd3_1
XFILLER_29_22 VGND VGND VPWR VPWR sky130_fd_sc_hd__decap_3
XFILLER_43_189 VGND VGND VPWR VPWR sky130_fd_sc_hd__decap_6
XFILLER_43_167 VGND VGND VPWR VPWR sky130_fd_sc_hd__fill_1
X_1001_ clknet_3_4__leaf_clk _0051_ net35 VGND VGND VPWR VPWR prod_adder.gen_for_loop\[6\].adder_n.a
+ sky130_fd_sc_hd__dfstp_1
XFILLER_34_123 VGND VGND VPWR VPWR sky130_fd_sc_hd__decap_6
XFILLER_34_178 VGND VGND VPWR VPWR sky130_fd_sc_hd__decap_3
X_0578_ uart_tx.clk_cnt\[9\] net14 VGND VGND VPWR VPWR _0177_ sky130_fd_sc_hd__nand2b_1
X_0716_ _0281_ _0298_ _0299_ VGND VGND VPWR VPWR _0003_ sky130_fd_sc_hd__or3_1
X_0647_ net6 uart_tx.count.next_cnt_out\[1\] VGND VGND VPWR VPWR _0232_ sky130_fd_sc_hd__xor2_1
XFILLER_40_137 VGND VGND VPWR VPWR sky130_fd_sc_hd__decap_3
XFILLER_15_24 VGND VGND VPWR VPWR sky130_fd_sc_hd__decap_4
XFILLER_15_57 VGND VGND VPWR VPWR sky130_fd_sc_hd__decap_8
XFILLER_25_167 VGND VGND VPWR VPWR sky130_fd_sc_hd__fill_1
X_0501_ uart_rcv.control.state\[0\] uart_rcv.control.state\[2\] uart_rcv.control.state\[1\]
+ VGND VGND VPWR VPWR _0116_ sky130_fd_sc_hd__nor3b_2
XFILLER_11_3 VGND VGND VPWR VPWR sky130_fd_sc_hd__decap_8
XFILLER_22_137 VGND VGND VPWR VPWR sky130_fd_sc_hd__decap_3
XFILLER_22_159 VPWR VGND VPWR VGND sky130_ef_sc_hd__decap_12
XFILLER_26_45 VGND VGND VPWR VPWR sky130_fd_sc_hd__fill_1
XFILLER_26_67 VGND VGND VPWR VPWR sky130_fd_sc_hd__decap_4
XFILLER_42_55 VPWR VGND VPWR VGND sky130_ef_sc_hd__decap_12
XTAP_TAPCELL_ROW_23_198 VGND VPWR sky130_fd_sc_hd__tapvpwrvgnd_1
XTAP_TAPCELL_ROW_8_130 VGND VPWR sky130_fd_sc_hd__tapvpwrvgnd_1
XFILLER_3_27 VPWR VGND VPWR VGND sky130_ef_sc_hd__decap_12
X_0981_ clknet_3_1__leaf_clk _0031_ net28 VGND VGND VPWR VPWR parallel_out1\[2\] sky130_fd_sc_hd__dfstp_1
XFILLER_8_141 VPWR VGND VPWR VGND sky130_ef_sc_hd__decap_12
XFILLER_27_218 VGND VGND VPWR VPWR sky130_fd_sc_hd__decap_6
XFILLER_37_77 VGND VGND VPWR VPWR sky130_fd_sc_hd__decap_4
XFILLER_26_251 VGND VGND VPWR VPWR sky130_fd_sc_hd__fill_1
XFILLER_5_144 VPWR VGND VPWR VGND sky130_ef_sc_hd__decap_12
XFILLER_5_111 VGND VGND VPWR VPWR sky130_fd_sc_hd__fill_1
XTAP_TAPCELL_ROW_42_282 VGND VPWR sky130_fd_sc_hd__tapvpwrvgnd_1
X_0964_ clknet_3_3__leaf_clk uart_rcv.tim.clock_count.next_cnt_out\[9\] net33 VGND
+ VGND VPWR VPWR uart_rcv.tim.clk_cnt\[9\] sky130_fd_sc_hd__dfrtp_1
XTAP_TAPCELL_ROW_34_249 VGND VPWR sky130_fd_sc_hd__tapvpwrvgnd_1
X_0895_ _0422_ _0425_ VGND VGND VPWR VPWR _0426_ sky130_fd_sc_hd__xnor2_1
XTAP_TAPCELL_ROW_2_103 VGND VPWR sky130_fd_sc_hd__tapvpwrvgnd_1
XTAP_TAPCELL_ROW_25_205 VGND VPWR sky130_fd_sc_hd__tapvpwrvgnd_1
XFILLER_9_15 VGND VGND VPWR VPWR sky130_fd_sc_hd__decap_4
XFILLER_13_90 VGND VGND VPWR VPWR sky130_fd_sc_hd__fill_1