* NGSPICE file created from pwm_wrapper.ext - technology: sky130A

* Black-box entry subcircuit for sky130_fd_sc_hd__decap_4 abstract view
.subckt sky130_fd_sc_hd__decap_4 VGND VNB VPB VPWR
.ends

* Black-box entry subcircuit for sky130_fd_sc_hd__decap_3 abstract view
.subckt sky130_fd_sc_hd__decap_3 VGND VNB VPB VPWR
.ends

* Black-box entry subcircuit for sky130_fd_sc_hd__xnor2_1 abstract view
.subckt sky130_fd_sc_hd__xnor2_1 A B VGND VNB VPB VPWR Y
.ends

* Black-box entry subcircuit for sky130_ef_sc_hd__decap_12 abstract view
.subckt sky130_ef_sc_hd__decap_12 VPWR VGND VPB VNB
.ends

* Black-box entry subcircuit for sky130_fd_sc_hd__decap_8 abstract view
.subckt sky130_fd_sc_hd__decap_8 VGND VNB VPB VPWR
.ends

* Black-box entry subcircuit for sky130_fd_sc_hd__mux2_1 abstract view
.subckt sky130_fd_sc_hd__mux2_1 A0 A1 S VGND VNB VPB VPWR X
.ends

* Black-box entry subcircuit for sky130_fd_sc_hd__a22oi_1 abstract view
.subckt sky130_fd_sc_hd__a22oi_1 A1 A2 B1 B2 VGND VNB VPB VPWR Y
.ends

* Black-box entry subcircuit for sky130_fd_sc_hd__or4b_1 abstract view
.subckt sky130_fd_sc_hd__or4b_1 A B C D_N VGND VNB VPB VPWR X
.ends

* Black-box entry subcircuit for sky130_fd_sc_hd__diode_2 abstract view
.subckt sky130_fd_sc_hd__diode_2 DIODE VGND VNB VPB VPWR
.ends

* Black-box entry subcircuit for sky130_fd_sc_hd__dfrtp_1 abstract view
.subckt sky130_fd_sc_hd__dfrtp_1 CLK D RESET_B VGND VNB VPB VPWR Q
.ends

* Black-box entry subcircuit for sky130_fd_sc_hd__nand2_1 abstract view
.subckt sky130_fd_sc_hd__nand2_1 A B VGND VNB VPB VPWR Y
.ends

* Black-box entry subcircuit for sky130_fd_sc_hd__fill_1 abstract view
.subckt sky130_fd_sc_hd__fill_1 VGND VNB VPB VPWR
.ends

* Black-box entry subcircuit for sky130_fd_sc_hd__fill_2 abstract view
.subckt sky130_fd_sc_hd__fill_2 VGND VNB VPB VPWR
.ends

* Black-box entry subcircuit for sky130_fd_sc_hd__tapvpwrvgnd_1 abstract view
.subckt sky130_fd_sc_hd__tapvpwrvgnd_1 VGND VPWR
.ends

* Black-box entry subcircuit for sky130_fd_sc_hd__clkbuf_8 abstract view
.subckt sky130_fd_sc_hd__clkbuf_8 A VGND VNB VPB VPWR X
.ends

* Black-box entry subcircuit for sky130_fd_sc_hd__dfrtp_4 abstract view
.subckt sky130_fd_sc_hd__dfrtp_4 CLK D RESET_B VGND VNB VPB VPWR Q
.ends

* Black-box entry subcircuit for sky130_fd_sc_hd__dfrtp_2 abstract view
.subckt sky130_fd_sc_hd__dfrtp_2 CLK D RESET_B VGND VNB VPB VPWR Q
.ends

* Black-box entry subcircuit for sky130_fd_sc_hd__a22o_1 abstract view
.subckt sky130_fd_sc_hd__a22o_1 A1 A2 B1 B2 VGND VNB VPB VPWR X
.ends

* Black-box entry subcircuit for sky130_fd_sc_hd__or3_1 abstract view
.subckt sky130_fd_sc_hd__or3_1 A B C VGND VNB VPB VPWR X
.ends

* Black-box entry subcircuit for sky130_fd_sc_hd__decap_6 abstract view
.subckt sky130_fd_sc_hd__decap_6 VGND VNB VPB VPWR
.ends

* Black-box entry subcircuit for sky130_fd_sc_hd__clkbuf_4 abstract view
.subckt sky130_fd_sc_hd__clkbuf_4 A VGND VNB VPB VPWR X
.ends

* Black-box entry subcircuit for sky130_fd_sc_hd__buf_2 abstract view
.subckt sky130_fd_sc_hd__buf_2 A VGND VNB VPB VPWR X
.ends

* Black-box entry subcircuit for sky130_fd_sc_hd__a21o_1 abstract view
.subckt sky130_fd_sc_hd__a21o_1 A1 A2 B1 VGND VNB VPB VPWR X
.ends

* Black-box entry subcircuit for sky130_fd_sc_hd__o22ai_1 abstract view
.subckt sky130_fd_sc_hd__o22ai_1 A1 A2 B1 B2 VGND VNB VPB VPWR Y
.ends

* Black-box entry subcircuit for sky130_fd_sc_hd__inv_2 abstract view
.subckt sky130_fd_sc_hd__inv_2 A VGND VNB VPB VPWR Y
.ends

* Black-box entry subcircuit for sky130_fd_sc_hd__a211o_1 abstract view
.subckt sky130_fd_sc_hd__a211o_1 A1 A2 B1 C1 VGND VNB VPB VPWR X
.ends

* Black-box entry subcircuit for sky130_fd_sc_hd__o21ai_1 abstract view
.subckt sky130_fd_sc_hd__o21ai_1 A1 A2 B1 VGND VNB VPB VPWR Y
.ends

* Black-box entry subcircuit for sky130_fd_sc_hd__and2_1 abstract view
.subckt sky130_fd_sc_hd__and2_1 A B VGND VNB VPB VPWR X
.ends

* Black-box entry subcircuit for sky130_fd_sc_hd__nor2_1 abstract view
.subckt sky130_fd_sc_hd__nor2_1 A B VGND VNB VPB VPWR Y
.ends

* Black-box entry subcircuit for sky130_fd_sc_hd__a21oi_1 abstract view
.subckt sky130_fd_sc_hd__a21oi_1 A1 A2 B1 VGND VNB VPB VPWR Y
.ends

* Black-box entry subcircuit for sky130_fd_sc_hd__o31ai_1 abstract view
.subckt sky130_fd_sc_hd__o31ai_1 A1 A2 A3 B1 VGND VNB VPB VPWR Y
.ends

* Black-box entry subcircuit for sky130_fd_sc_hd__dlygate4sd3_1 abstract view
.subckt sky130_fd_sc_hd__dlygate4sd3_1 A VGND VNB VPB VPWR X
.ends

* Black-box entry subcircuit for sky130_fd_sc_hd__a31o_1 abstract view
.subckt sky130_fd_sc_hd__a31o_1 A1 A2 A3 B1 VGND VNB VPB VPWR X
.ends

* Black-box entry subcircuit for sky130_fd_sc_hd__a32o_1 abstract view
.subckt sky130_fd_sc_hd__a32o_1 A1 A2 A3 B1 B2 VGND VNB VPB VPWR X
.ends

* Black-box entry subcircuit for sky130_fd_sc_hd__nor2_2 abstract view
.subckt sky130_fd_sc_hd__nor2_2 A B VGND VNB VPB VPWR Y
.ends

* Black-box entry subcircuit for sky130_fd_sc_hd__and4_1 abstract view
.subckt sky130_fd_sc_hd__and4_1 A B C D VGND VNB VPB VPWR X
.ends

* Black-box entry subcircuit for sky130_fd_sc_hd__o221a_1 abstract view
.subckt sky130_fd_sc_hd__o221a_1 A1 A2 B1 B2 C1 VGND VNB VPB VPWR X
.ends

* Black-box entry subcircuit for sky130_fd_sc_hd__or2_1 abstract view
.subckt sky130_fd_sc_hd__or2_1 A B VGND VNB VPB VPWR X
.ends

* Black-box entry subcircuit for sky130_fd_sc_hd__clkbuf_16 abstract view
.subckt sky130_fd_sc_hd__clkbuf_16 A VGND VNB VPB VPWR X
.ends

* Black-box entry subcircuit for sky130_fd_sc_hd__o2111a_1 abstract view
.subckt sky130_fd_sc_hd__o2111a_1 A1 A2 B1 C1 D1 VGND VNB VPB VPWR X
.ends

* Black-box entry subcircuit for sky130_fd_sc_hd__o21a_1 abstract view
.subckt sky130_fd_sc_hd__o21a_1 A1 A2 B1 VGND VNB VPB VPWR X
.ends

* Black-box entry subcircuit for sky130_fd_sc_hd__and2b_1 abstract view
.subckt sky130_fd_sc_hd__and2b_1 A_N B VGND VNB VPB VPWR X
.ends

* Black-box entry subcircuit for sky130_fd_sc_hd__and3_2 abstract view
.subckt sky130_fd_sc_hd__and3_2 A B C VGND VNB VPB VPWR X
.ends

* Black-box entry subcircuit for sky130_fd_sc_hd__a221o_1 abstract view
.subckt sky130_fd_sc_hd__a221o_1 A1 A2 B1 B2 C1 VGND VNB VPB VPWR X
.ends

* Black-box entry subcircuit for sky130_fd_sc_hd__and3_1 abstract view
.subckt sky130_fd_sc_hd__and3_1 A B C VGND VNB VPB VPWR X
.ends

* Black-box entry subcircuit for sky130_fd_sc_hd__a2111o_1 abstract view
.subckt sky130_fd_sc_hd__a2111o_1 A1 A2 B1 C1 D1 VGND VNB VPB VPWR X
.ends

* Black-box entry subcircuit for sky130_fd_sc_hd__nand3_1 abstract view
.subckt sky130_fd_sc_hd__nand3_1 A B C VGND VNB VPB VPWR Y
.ends

* Black-box entry subcircuit for sky130_fd_sc_hd__a21bo_1 abstract view
.subckt sky130_fd_sc_hd__a21bo_1 A1 A2 B1_N VGND VNB VPB VPWR X
.ends

* Black-box entry subcircuit for sky130_fd_sc_hd__o21ba_1 abstract view
.subckt sky130_fd_sc_hd__o21ba_1 A1 A2 B1_N VGND VNB VPB VPWR X
.ends

* Black-box entry subcircuit for sky130_fd_sc_hd__o211ai_1 abstract view
.subckt sky130_fd_sc_hd__o211ai_1 A1 A2 B1 C1 VGND VNB VPB VPWR Y
.ends

* Black-box entry subcircuit for sky130_fd_sc_hd__a21boi_1 abstract view
.subckt sky130_fd_sc_hd__a21boi_1 A1 A2 B1_N VGND VNB VPB VPWR Y
.ends

* Black-box entry subcircuit for sky130_fd_sc_hd__or3b_1 abstract view
.subckt sky130_fd_sc_hd__or3b_1 A B C_N VGND VNB VPB VPWR X
.ends

* Black-box entry subcircuit for sky130_fd_sc_hd__or4bb_2 abstract view
.subckt sky130_fd_sc_hd__or4bb_2 A B C_N D_N VGND VNB VPB VPWR X
.ends

* Black-box entry subcircuit for sky130_fd_sc_hd__and3b_1 abstract view
.subckt sky130_fd_sc_hd__and3b_1 A_N B C VGND VNB VPB VPWR X
.ends

* Black-box entry subcircuit for sky130_fd_sc_hd__nand2b_1 abstract view
.subckt sky130_fd_sc_hd__nand2b_1 A_N B VGND VNB VPB VPWR Y
.ends

* Black-box entry subcircuit for sky130_fd_sc_hd__xor2_1 abstract view
.subckt sky130_fd_sc_hd__xor2_1 A B VGND VNB VPB VPWR X
.ends

* Black-box entry subcircuit for sky130_fd_sc_hd__o22a_1 abstract view
.subckt sky130_fd_sc_hd__o22a_1 A1 A2 B1 B2 VGND VNB VPB VPWR X
.ends

* Black-box entry subcircuit for sky130_fd_sc_hd__nand3b_1 abstract view
.subckt sky130_fd_sc_hd__nand3b_1 A_N B C VGND VNB VPB VPWR Y
.ends

* Black-box entry subcircuit for sky130_fd_sc_hd__or4bb_1 abstract view
.subckt sky130_fd_sc_hd__or4bb_1 A B C_N D_N VGND VNB VPB VPWR X
.ends

* Black-box entry subcircuit for sky130_fd_sc_hd__or4_1 abstract view
.subckt sky130_fd_sc_hd__or4_1 A B C D VGND VNB VPB VPWR X
.ends

* Black-box entry subcircuit for sky130_fd_sc_hd__o211a_1 abstract view
.subckt sky130_fd_sc_hd__o211a_1 A1 A2 B1 C1 VGND VNB VPB VPWR X
.ends

* Black-box entry subcircuit for sky130_fd_sc_hd__a311o_1 abstract view
.subckt sky130_fd_sc_hd__a311o_1 A1 A2 A3 B1 C1 VGND VNB VPB VPWR X
.ends

* Black-box entry subcircuit for sky130_fd_sc_hd__nor3_1 abstract view
.subckt sky130_fd_sc_hd__nor3_1 A B C VGND VNB VPB VPWR Y
.ends

* Black-box entry subcircuit for sky130_fd_sc_hd__conb_1 abstract view
.subckt sky130_fd_sc_hd__conb_1 VGND VNB VPB VPWR HI LO
.ends

* Black-box entry subcircuit for sky130_fd_sc_hd__and4b_1 abstract view
.subckt sky130_fd_sc_hd__and4b_1 A_N B C D VGND VNB VPB VPWR X
.ends

* Black-box entry subcircuit for sky130_fd_sc_hd__nand2_2 abstract view
.subckt sky130_fd_sc_hd__nand2_2 A B VGND VNB VPB VPWR Y
.ends

* Black-box entry subcircuit for sky130_fd_sc_hd__o221ai_1 abstract view
.subckt sky130_fd_sc_hd__o221ai_1 A1 A2 B1 B2 C1 VGND VNB VPB VPWR Y
.ends

* Black-box entry subcircuit for sky130_fd_sc_hd__buf_4 abstract view
.subckt sky130_fd_sc_hd__buf_4 A VGND VNB VPB VPWR X
.ends

* Black-box entry subcircuit for sky130_fd_sc_hd__o2bb2a_1 abstract view
.subckt sky130_fd_sc_hd__o2bb2a_1 A1_N A2_N B1 B2 VGND VNB VPB VPWR X
.ends

* Black-box entry subcircuit for sky130_fd_sc_hd__clkbuf_2 abstract view
.subckt sky130_fd_sc_hd__clkbuf_2 A VGND VNB VPB VPWR X
.ends

* Black-box entry subcircuit for sky130_fd_sc_hd__and4bb_1 abstract view
.subckt sky130_fd_sc_hd__and4bb_1 A_N B_N C D VGND VNB VPB VPWR X
.ends

* Black-box entry subcircuit for sky130_fd_sc_hd__o31a_1 abstract view
.subckt sky130_fd_sc_hd__o31a_1 A1 A2 A3 B1 VGND VNB VPB VPWR X
.ends

* Black-box entry subcircuit for sky130_fd_sc_hd__inv_6 abstract view
.subckt sky130_fd_sc_hd__inv_6 A VGND VNB VPB VPWR Y
.ends

* Black-box entry subcircuit for sky130_fd_sc_hd__a31oi_1 abstract view
.subckt sky130_fd_sc_hd__a31oi_1 A1 A2 A3 B1 VGND VNB VPB VPWR Y
.ends

* Black-box entry subcircuit for sky130_fd_sc_hd__inv_8 abstract view
.subckt sky130_fd_sc_hd__inv_8 A VGND VNB VPB VPWR Y
.ends

* Black-box entry subcircuit for sky130_fd_sc_hd__clkinvlp_4 abstract view
.subckt sky130_fd_sc_hd__clkinvlp_4 A VGND VNB VPB VPWR Y
.ends

* Black-box entry subcircuit for sky130_fd_sc_hd__o32a_1 abstract view
.subckt sky130_fd_sc_hd__o32a_1 A1 A2 A3 B1 B2 VGND VNB VPB VPWR X
.ends

* Black-box entry subcircuit for sky130_fd_sc_hd__a2111oi_1 abstract view
.subckt sky130_fd_sc_hd__a2111oi_1 A1 A2 B1 C1 D1 VGND VNB VPB VPWR Y
.ends

* Black-box entry subcircuit for sky130_fd_sc_hd__a2bb2o_1 abstract view
.subckt sky130_fd_sc_hd__a2bb2o_1 A1_N A2_N B1 B2 VGND VNB VPB VPWR X
.ends

* Black-box entry subcircuit for sky130_fd_sc_hd__clkinv_8 abstract view
.subckt sky130_fd_sc_hd__clkinv_8 A VGND VNB VPB VPWR Y
.ends

* Black-box entry subcircuit for sky130_fd_sc_hd__bufinv_16 abstract view
.subckt sky130_fd_sc_hd__bufinv_16 A VGND VNB VPB VPWR Y
.ends

* Black-box entry subcircuit for sky130_fd_sc_hd__or4b_2 abstract view
.subckt sky130_fd_sc_hd__or4b_2 A B C D_N VGND VNB VPB VPWR X
.ends

* Black-box entry subcircuit for sky130_fd_sc_hd__clkinv_4 abstract view
.subckt sky130_fd_sc_hd__clkinv_4 A VGND VNB VPB VPWR Y
.ends

* Black-box entry subcircuit for sky130_fd_sc_hd__xnor2_2 abstract view
.subckt sky130_fd_sc_hd__xnor2_2 A B VGND VNB VPB VPWR Y
.ends

* Black-box entry subcircuit for sky130_fd_sc_hd__o311a_1 abstract view
.subckt sky130_fd_sc_hd__o311a_1 A1 A2 A3 B1 C1 VGND VNB VPB VPWR X
.ends

* Black-box entry subcircuit for sky130_fd_sc_hd__clkbuf_1 abstract view
.subckt sky130_fd_sc_hd__clkbuf_1 A VGND VNB VPB VPWR X
.ends

* Black-box entry subcircuit for sky130_fd_sc_hd__a211oi_1 abstract view
.subckt sky130_fd_sc_hd__a211oi_1 A1 A2 B1 C1 VGND VNB VPB VPWR Y
.ends

* Black-box entry subcircuit for sky130_fd_sc_hd__or3_2 abstract view
.subckt sky130_fd_sc_hd__or3_2 A B C VGND VNB VPB VPWR X
.ends

* Black-box entry subcircuit for sky130_fd_sc_hd__clkinv_2 abstract view
.subckt sky130_fd_sc_hd__clkinv_2 A VGND VNB VPB VPWR Y
.ends

* Black-box entry subcircuit for sky130_fd_sc_hd__and2b_2 abstract view
.subckt sky130_fd_sc_hd__and2b_2 A_N B VGND VNB VPB VPWR X
.ends

* Black-box entry subcircuit for sky130_fd_sc_hd__o21bai_2 abstract view
.subckt sky130_fd_sc_hd__o21bai_2 A1 A2 B1_N VGND VNB VPB VPWR Y
.ends

* Black-box entry subcircuit for sky130_fd_sc_hd__and2_2 abstract view
.subckt sky130_fd_sc_hd__and2_2 A B VGND VNB VPB VPWR X
.ends

* Black-box entry subcircuit for sky130_fd_sc_hd__nand2_4 abstract view
.subckt sky130_fd_sc_hd__nand2_4 A B VGND VNB VPB VPWR Y
.ends

* Black-box entry subcircuit for sky130_fd_sc_hd__nand4_1 abstract view
.subckt sky130_fd_sc_hd__nand4_1 A B C D VGND VNB VPB VPWR Y
.ends

* Black-box entry subcircuit for sky130_fd_sc_hd__a221oi_4 abstract view
.subckt sky130_fd_sc_hd__a221oi_4 A1 A2 B1 B2 C1 VGND VNB VPB VPWR Y
.ends

* Black-box entry subcircuit for sky130_fd_sc_hd__xor2_2 abstract view
.subckt sky130_fd_sc_hd__xor2_2 A B VGND VNB VPB VPWR X
.ends

* Black-box entry subcircuit for sky130_fd_sc_hd__a31oi_2 abstract view
.subckt sky130_fd_sc_hd__a31oi_2 A1 A2 A3 B1 VGND VNB VPB VPWR Y
.ends

* Black-box entry subcircuit for sky130_fd_sc_hd__a21oi_2 abstract view
.subckt sky130_fd_sc_hd__a21oi_2 A1 A2 B1 VGND VNB VPB VPWR Y
.ends

* Black-box entry subcircuit for sky130_fd_sc_hd__nand4_4 abstract view
.subckt sky130_fd_sc_hd__nand4_4 A B C D VGND VNB VPB VPWR Y
.ends

* Black-box entry subcircuit for sky130_fd_sc_hd__buf_1 abstract view
.subckt sky130_fd_sc_hd__buf_1 A VGND VNB VPB VPWR X
.ends

* Black-box entry subcircuit for sky130_fd_sc_hd__nor4_1 abstract view
.subckt sky130_fd_sc_hd__nor4_1 A B C D VGND VNB VPB VPWR Y
.ends

* Black-box entry subcircuit for sky130_fd_sc_hd__a221oi_1 abstract view
.subckt sky130_fd_sc_hd__a221oi_1 A1 A2 B1 B2 C1 VGND VNB VPB VPWR Y
.ends

* Black-box entry subcircuit for sky130_fd_sc_hd__o21bai_1 abstract view
.subckt sky130_fd_sc_hd__o21bai_1 A1 A2 B1_N VGND VNB VPB VPWR Y
.ends

* Black-box entry subcircuit for sky130_fd_sc_hd__nand4b_1 abstract view
.subckt sky130_fd_sc_hd__nand4b_1 A_N B C D VGND VNB VPB VPWR Y
.ends

* Black-box entry subcircuit for sky130_fd_sc_hd__a41o_1 abstract view
.subckt sky130_fd_sc_hd__a41o_1 A1 A2 A3 A4 B1 VGND VNB VPB VPWR X
.ends

* Black-box entry subcircuit for sky130_fd_sc_hd__a211o_2 abstract view
.subckt sky130_fd_sc_hd__a211o_2 A1 A2 B1 C1 VGND VNB VPB VPWR X
.ends

* Black-box entry subcircuit for sky130_fd_sc_hd__or2_2 abstract view
.subckt sky130_fd_sc_hd__or2_2 A B VGND VNB VPB VPWR X
.ends

* Black-box entry subcircuit for sky130_fd_sc_hd__o21ai_2 abstract view
.subckt sky130_fd_sc_hd__o21ai_2 A1 A2 B1 VGND VNB VPB VPWR Y
.ends

* Black-box entry subcircuit for sky130_fd_sc_hd__a32o_2 abstract view
.subckt sky130_fd_sc_hd__a32o_2 A1 A2 A3 B1 B2 VGND VNB VPB VPWR X
.ends

.subckt pwm_wrapper CLK VGND VPWR addr[0] addr[10] addr[11] addr[12] addr[13] addr[14]
+ addr[15] addr[16] addr[17] addr[18] addr[19] addr[1] addr[20] addr[21] addr[22]
+ addr[23] addr[24] addr[25] addr[26] addr[27] addr[28] addr[29] addr[2] addr[30]
+ addr[31] addr[3] addr[4] addr[5] addr[6] addr[7] addr[8] addr[9] error nRST pwm_out[0]
+ pwm_out[1] rdata[0] rdata[10] rdata[11] rdata[12] rdata[13] rdata[14] rdata[15]
+ rdata[16] rdata[17] rdata[18] rdata[19] rdata[1] rdata[20] rdata[21] rdata[22] rdata[23]
+ rdata[24] rdata[25] rdata[26] rdata[27] rdata[28] rdata[29] rdata[2] rdata[30] rdata[31]
+ rdata[3] rdata[4] rdata[5] rdata[6] rdata[7] rdata[8] rdata[9] ren request_stall
+ strobe[0] strobe[1] strobe[2] strobe[3] wdata[0] wdata[10] wdata[11] wdata[12] wdata[13]
+ wdata[14] wdata[15] wdata[16] wdata[17] wdata[18] wdata[19] wdata[1] wdata[20] wdata[21]
+ wdata[22] wdata[23] wdata[24] wdata[25] wdata[26] wdata[27] wdata[28] wdata[29]
+ wdata[2] wdata[30] wdata[31] wdata[3] wdata[4] wdata[5] wdata[6] wdata[7] wdata[8]
+ wdata[9] wen
XFILLER_67_575 VGND VGND VPWR VPWR sky130_fd_sc_hd__decap_4
XFILLER_27_417 VGND VGND VPWR VPWR sky130_fd_sc_hd__decap_3
X_3155_ _1716_ _0536_ VGND VGND VPWR VPWR _0740_ sky130_fd_sc_hd__xnor2_1
XFILLER_39_266 VPWR VGND VPWR VGND sky130_ef_sc_hd__decap_12
XFILLER_82_523 VGND VGND VPWR VPWR sky130_fd_sc_hd__decap_8
X_2106_ net251 myPWM.g_pwm_channel\[0\].CHANNEL.data_double_buff\[23\] net106 VGND
+ VGND VPWR VPWR _0023_ sky130_fd_sc_hd__mux2_1
X_3086_ net121 _0667_ _0670_ myPWM.g_pwm_channel\[0\].CHANNEL.f_count\[22\] VGND VGND
+ VPWR VPWR _0671_ sky130_fd_sc_hd__a22oi_1
X_2037_ _1510_ _1513_ _1529_ _1511_ VGND VGND VPWR VPWR _1530_ sky130_fd_sc_hd__or4b_1
XANTENNA_fanout162_A net168 VGND VGND VPWR VPWR sky130_fd_sc_hd__diode_2
XFILLER_82_589 VGND VGND VPWR VPWR sky130_fd_sc_hd__decap_3
XFILLER_22_122 VPWR VGND VPWR VGND sky130_ef_sc_hd__decap_12
X_3988_ clknet_leaf_3_CLK _0180_ net135 VGND VGND VPWR VPWR myPWM.g_pwm_channel\[1\].CHANNEL.data_buff\[49\]
+ sky130_fd_sc_hd__dfrtp_1
X_2939_ _0522_ _0523_ VGND VGND VPWR VPWR _0524_ sky130_fd_sc_hd__nand2_1
XFILLER_89_133 VGND VGND VPWR VPWR sky130_fd_sc_hd__decap_4
XFILLER_58_531 VGND VGND VPWR VPWR sky130_fd_sc_hd__fill_1
XFILLER_92_309 VPWR VGND VPWR VGND sky130_ef_sc_hd__decap_12
XFILLER_45_225 VPWR VGND VPWR VGND sky130_ef_sc_hd__decap_12
XFILLER_93_69 VPWR VGND VPWR VGND sky130_ef_sc_hd__decap_12
XFILLER_26_41 VGND VGND VPWR VPWR sky130_fd_sc_hd__decap_8
XFILLER_14_601 VPWR VGND VPWR VGND sky130_ef_sc_hd__decap_12
XFILLER_13_111 VGND VGND VPWR VPWR sky130_fd_sc_hd__fill_1
XFILLER_41_431 VGND VGND VPWR VPWR sky130_fd_sc_hd__decap_8
XFILLER_41_464 VGND VGND VPWR VPWR sky130_fd_sc_hd__decap_8
XFILLER_13_177 VGND VGND VPWR VPWR sky130_fd_sc_hd__fill_2
XFILLER_9_137 VGND VGND VPWR VPWR sky130_fd_sc_hd__decap_3
XTAP_TAPCELL_ROW_11_345 VGND VPWR sky130_fd_sc_hd__tapvpwrvgnd_1
XANTENNA__2304__S net76 VGND VGND VPWR VPWR sky130_fd_sc_hd__diode_2
XANTENNA__3196__A _1656_ VGND VGND VPWR VPWR sky130_fd_sc_hd__diode_2
XTAP_TAPCELL_ROW_97_1288 VGND VPWR sky130_fd_sc_hd__tapvpwrvgnd_1
XFILLER_95_125 VPWR VGND VPWR VGND sky130_ef_sc_hd__decap_12
XFILLER_95_169 VPWR VGND VPWR VGND sky130_ef_sc_hd__decap_12
XFILLER_67_81 VPWR VGND VPWR VGND sky130_ef_sc_hd__decap_12
XFILLER_49_553 VGND VGND VPWR VPWR sky130_fd_sc_hd__decap_4
Xclkbuf_leaf_6_CLK clknet_2_1__leaf_CLK VGND VGND VPWR VPWR clknet_leaf_6_CLK sky130_fd_sc_hd__clkbuf_8
XFILLER_36_225 VGND VGND VPWR VPWR sky130_fd_sc_hd__decap_3
XTAP_TAPCELL_ROW_47_732 VGND VPWR sky130_fd_sc_hd__tapvpwrvgnd_1
XFILLER_64_578 VGND VGND VPWR VPWR sky130_fd_sc_hd__decap_8
XTAP_TAPCELL_ROW_19_434 VGND VPWR sky130_fd_sc_hd__tapvpwrvgnd_1
XFILLER_64_589 VGND VGND VPWR VPWR sky130_fd_sc_hd__fill_2
XFILLER_17_472 VPWR VGND VPWR VGND sky130_ef_sc_hd__decap_12
X_3911_ clknet_leaf_0_CLK myPWM.g_pwm_channel\[1\].CHANNEL.fcnt.next_state\[7\] net133
+ VGND VGND VPWR VPWR myPWM.g_pwm_channel\[1\].CHANNEL.f_count\[7\] sky130_fd_sc_hd__dfrtp_4
X_3842_ clknet_leaf_24_CLK _0068_ net152 VGND VGND VPWR VPWR myPWM.g_pwm_channel\[0\].CHANNEL.data_buff\[3\]
+ sky130_fd_sc_hd__dfrtp_1
XFILLER_32_475 VGND VGND VPWR VPWR sky130_fd_sc_hd__fill_1
XFILLER_32_497 VPWR VGND VPWR VGND sky130_ef_sc_hd__decap_12
XANTENNA__2214__S net102 VGND VGND VPWR VPWR sky130_fd_sc_hd__diode_2
X_3773_ clknet_leaf_21_CLK _0000_ net153 VGND VGND VPWR VPWR myPWM.g_pwm_channel\[0\].CHANNEL.data_double_buff\[0\]
+ sky130_fd_sc_hd__dfrtp_2
XANTENNA__1924__A_N net114 VGND VGND VPWR VPWR sky130_fd_sc_hd__diode_2
X_2724_ _1661_ myPWM.g_pwm_channel\[0\].CHANNEL.f_count\[8\] myPWM.g_pwm_channel\[0\].CHANNEL.data_double_buff\[31\]
+ _1699_ VGND VGND VPWR VPWR _0342_ sky130_fd_sc_hd__a22o_1
X_2655_ _1648_ myPWM.g_pwm_channel\[1\].CHANNEL.fcnt.next_state\[30\] VGND VGND VPWR
+ VPWR _0275_ sky130_fd_sc_hd__nand2_1
XTAP_TAPCELL_ROW_74_1030 VGND VPWR sky130_fd_sc_hd__tapvpwrvgnd_1
X_2586_ net70 _1800_ _1801_ VGND VGND VPWR VPWR _1802_ sky130_fd_sc_hd__or3_1
XANTENNA__3553__B myPWM.g_pwm_channel\[1\].CHANNEL.data_double_buff\[48\] VGND VGND
+ VPWR VPWR sky130_fd_sc_hd__diode_2
XFILLER_99_497 VGND VGND VPWR VPWR sky130_fd_sc_hd__decap_6
Xfanout138 net139 VGND VGND VPWR VPWR net138 sky130_fd_sc_hd__clkbuf_4
XFILLER_87_615 VGND VGND VPWR VPWR sky130_fd_sc_hd__fill_1
Xfanout116 myPWM.g_pwm_channel\[1\].CHANNEL.f_count\[15\] VGND VGND VPWR VPWR net116
+ sky130_fd_sc_hd__buf_2
Xfanout105 _1574_ VGND VGND VPWR VPWR net105 sky130_fd_sc_hd__buf_2
Xfanout127 net128 VGND VGND VPWR VPWR net127 sky130_fd_sc_hd__clkbuf_4
Xfanout149 net150 VGND VGND VPWR VPWR net149 sky130_fd_sc_hd__clkbuf_4
XFILLER_74_309 VPWR VGND VPWR VGND sky130_ef_sc_hd__decap_12
X_3207_ _0515_ _0516_ _0514_ VGND VGND VPWR VPWR _0792_ sky130_fd_sc_hd__a21o_1
XFILLER_55_501 VGND VGND VPWR VPWR sky130_fd_sc_hd__decap_3
XFILLER_67_383 VGND VGND VPWR VPWR sky130_fd_sc_hd__decap_8
X_3138_ net108 _0721_ _0722_ myPWM.g_pwm_channel\[0\].CHANNEL.f_count\[7\] VGND VGND
+ VPWR VPWR _0723_ sky130_fd_sc_hd__o22ai_1
XANTENNA__2456__Y _1682_ VGND VGND VPWR VPWR sky130_fd_sc_hd__diode_2
XFILLER_27_236 VGND VGND VPWR VPWR sky130_fd_sc_hd__decap_4
XFILLER_70_504 VPWR VGND VPWR VGND sky130_ef_sc_hd__decap_12
X_3069_ net118 _0651_ _0653_ VGND VGND VPWR VPWR _0654_ sky130_fd_sc_hd__a21o_1
XFILLER_63_17 VGND VGND VPWR VPWR sky130_fd_sc_hd__decap_6
XFILLER_42_217 VPWR VGND VPWR VGND sky130_ef_sc_hd__decap_12
XFILLER_70_548 VPWR VGND VPWR VGND sky130_ef_sc_hd__decap_12
XFILLER_23_420 VGND VGND VPWR VPWR sky130_fd_sc_hd__fill_1
XFILLER_11_615 VGND VGND VPWR VPWR sky130_fd_sc_hd__fill_1
XFILLER_23_464 VPWR VGND VPWR VGND sky130_ef_sc_hd__decap_12
XFILLER_50_250 VGND VGND VPWR VPWR sky130_fd_sc_hd__fill_2
XFILLER_10_169 VGND VGND VPWR VPWR sky130_fd_sc_hd__fill_1
XFILLER_12_65 VPWR VGND VPWR VGND sky130_ef_sc_hd__decap_12
XANTENNA_fanout78_X net78 VGND VGND VPWR VPWR sky130_fd_sc_hd__diode_2
XFILLER_92_139 VGND VGND VPWR VPWR sky130_fd_sc_hd__fill_1
XTAP_TAPCELL_ROW_44_702 VGND VPWR sky130_fd_sc_hd__tapvpwrvgnd_1
XFILLER_46_589 VGND VGND VPWR VPWR sky130_fd_sc_hd__decap_8
XANTENNA__3407__A2 myPWM.g_pwm_channel\[0\].CHANNEL.data_double_buff\[51\] VGND VGND
+ VPWR VPWR sky130_fd_sc_hd__diode_2
XFILLER_61_537 VGND VGND VPWR VPWR sky130_fd_sc_hd__decap_3
XTAP_TAPCELL_ROW_99_1306 VGND VPWR sky130_fd_sc_hd__tapvpwrvgnd_1
XTAP_TAPCELL_ROW_24_481 VGND VPWR sky130_fd_sc_hd__tapvpwrvgnd_1
XFILLER_41_272 VGND VGND VPWR VPWR sky130_fd_sc_hd__decap_8
XTAP_TAPCELL_ROW_52_790 VGND VPWR sky130_fd_sc_hd__tapvpwrvgnd_1
X_2440_ myPWM.g_pwm_channel\[0\].CHANNEL.data_double_buff\[11\] VGND VGND VPWR VPWR
+ _1666_ sky130_fd_sc_hd__inv_2
XFILLER_96_401 VPWR VGND VPWR VGND sky130_ef_sc_hd__decap_12
XFILLER_69_615 VGND VGND VPWR VPWR sky130_fd_sc_hd__fill_1
X_2371_ myPWM.g_pwm_channel\[1\].CHANNEL.fcnt.count_enable net34 _1599_ VGND VGND
+ VPWR VPWR _0263_ sky130_fd_sc_hd__mux2_1
XFILLER_96_445 VPWR VGND VPWR VGND sky130_ef_sc_hd__decap_12
XFILLER_68_136 VGND VGND VPWR VPWR sky130_fd_sc_hd__decap_4
XFILLER_96_489 VPWR VGND VPWR VGND sky130_ef_sc_hd__decap_12
X_4041_ clknet_leaf_32_CLK _0233_ net131 VGND VGND VPWR VPWR myPWM.g_pwm_channel\[1\].CHANNEL.data_double_buff\[38\]
+ sky130_fd_sc_hd__dfrtp_4
XFILLER_37_512 VPWR VGND VPWR VGND sky130_ef_sc_hd__decap_12
XANTENNA__2209__S net100 VGND VGND VPWR VPWR sky130_fd_sc_hd__diode_2
XFILLER_91_183 VPWR VGND VPWR VGND sky130_ef_sc_hd__decap_12
XFILLER_52_559 VGND VGND VPWR VPWR sky130_fd_sc_hd__decap_4
X_3825_ clknet_leaf_9_CLK _0051_ net157 VGND VGND VPWR VPWR myPWM.g_pwm_channel\[0\].CHANNEL.data_buff\[50\]
+ sky130_fd_sc_hd__dfrtp_1
XFILLER_20_467 VGND VGND VPWR VPWR sky130_fd_sc_hd__decap_6
X_3756_ clknet_leaf_18_CLK myPWM.g_pwm_channel\[0\].CHANNEL.fcnt.next_state\[16\]
+ net156 VGND VGND VPWR VPWR myPWM.g_pwm_channel\[0\].CHANNEL.f_count\[16\] sky130_fd_sc_hd__dfrtp_4
X_2707_ _1667_ myPWM.g_pwm_channel\[0\].CHANNEL.f_count\[13\] myPWM.g_pwm_channel\[0\].CHANNEL.data_double_buff\[16\]
+ _1674_ VGND VGND VPWR VPWR _0325_ sky130_fd_sc_hd__a22o_1
X_3687_ _1160_ _1270_ VGND VGND VPWR VPWR _1271_ sky130_fd_sc_hd__nand2_1
XANTENNA__3564__A myPWM.g_pwm_channel\[1\].CHANNEL.data_double_buff\[11\] VGND VGND
+ VPWR VPWR sky130_fd_sc_hd__diode_2
X_2638_ net112 _1835_ _1837_ net70 VGND VGND VPWR VPWR _1838_ sky130_fd_sc_hd__a211o_1
XFILLER_99_261 VPWR VGND VPWR VGND sky130_ef_sc_hd__decap_12
X_2569_ myPWM.g_pwm_channel\[1\].CHANNEL.f_count\[6\] _1787_ net74 VGND VGND VPWR
+ VPWR _1790_ sky130_fd_sc_hd__o21ai_1
XFILLER_59_169 VGND VGND VPWR VPWR sky130_fd_sc_hd__fill_2
XFILLER_74_117 VGND VGND VPWR VPWR sky130_fd_sc_hd__fill_2
XFILLER_74_49 VGND VGND VPWR VPWR sky130_fd_sc_hd__decap_6
XFILLER_74_27 VGND VGND VPWR VPWR sky130_fd_sc_hd__fill_1
XFILLER_28_556 VGND VGND VPWR VPWR sky130_fd_sc_hd__fill_1
XANTENNA__3800__Q myPWM.g_pwm_channel\[0\].CHANNEL.data_double_buff\[27\] VGND VGND
+ VPWR VPWR sky130_fd_sc_hd__diode_2
XFILLER_70_301 VGND VGND VPWR VPWR sky130_fd_sc_hd__decap_6
XFILLER_28_589 VGND VGND VPWR VPWR sky130_fd_sc_hd__decap_6
XFILLER_55_364 VPWR VGND VPWR VGND sky130_ef_sc_hd__decap_12
XTAP_TAPCELL_ROW_83_1129 VGND VPWR sky130_fd_sc_hd__tapvpwrvgnd_1
XFILLER_90_15 VPWR VGND VPWR VGND sky130_ef_sc_hd__decap_12
XFILLER_11_401 VGND VGND VPWR VPWR sky130_fd_sc_hd__fill_1
XFILLER_7_405 VPWR VGND VPWR VGND sky130_ef_sc_hd__decap_12
XFILLER_7_449 VPWR VGND VPWR VGND sky130_ef_sc_hd__decap_12
XTAP_TAPCELL_ROW_21_451 VGND VPWR sky130_fd_sc_hd__tapvpwrvgnd_1
XFILLER_99_57 VPWR VGND VPWR VGND sky130_ef_sc_hd__decap_12
XANTENNA__3474__A myPWM.g_pwm_channel\[1\].CHANNEL.data_double_buff\[27\] VGND VGND
+ VPWR VPWR sky130_fd_sc_hd__diode_2
XTAP_TAPCELL_ROW_94_1258 VGND VPWR sky130_fd_sc_hd__tapvpwrvgnd_1
XFILLER_2_121 VPWR VGND VPWR VGND sky130_ef_sc_hd__decap_12
XANTENNA_input55_A wdata[29] VGND VGND VPWR VPWR sky130_fd_sc_hd__diode_2
XFILLER_2_165 VPWR VGND VPWR VGND sky130_ef_sc_hd__decap_12
XFILLER_78_445 VPWR VGND VPWR VGND sky130_ef_sc_hd__decap_12
XFILLER_38_309 VPWR VGND VPWR VGND sky130_ef_sc_hd__decap_12
XFILLER_48_61 VGND VGND VPWR VPWR sky130_fd_sc_hd__decap_3
XFILLER_78_489 VGND VGND VPWR VPWR sky130_fd_sc_hd__fill_2
XFILLER_48_72 VPWR VGND VPWR VGND sky130_ef_sc_hd__decap_12
XFILLER_19_545 VPWR VGND VPWR VGND sky130_ef_sc_hd__decap_12
XFILLER_80_109 VPWR VGND VPWR VGND sky130_ef_sc_hd__decap_12
XFILLER_0_57 VPWR VGND VPWR VGND sky130_ef_sc_hd__decap_12
XTAP_TAPCELL_ROW_29_540 VGND VPWR sky130_fd_sc_hd__tapvpwrvgnd_1
XFILLER_61_378 VGND VGND VPWR VPWR sky130_fd_sc_hd__fill_1
XFILLER_61_367 VGND VGND VPWR VPWR sky130_fd_sc_hd__fill_1
X_1940_ myPWM.g_pwm_channel\[1\].CHANNEL.f_count\[13\] _1428_ _1432_ myPWM.g_pwm_channel\[1\].CHANNEL.f_count\[12\]
+ VGND VGND VPWR VPWR _1433_ sky130_fd_sc_hd__a22o_1
XFILLER_9_55 VGND VGND VPWR VPWR sky130_fd_sc_hd__fill_1
X_1871_ _1362_ _1363_ VGND VGND VPWR VPWR _1364_ sky130_fd_sc_hd__and2_1
X_3610_ myPWM.g_pwm_channel\[1\].CHANNEL.data_double_buff\[26\] myPWM.g_pwm_channel\[1\].CHANNEL.data_double_buff\[58\]
+ VGND VGND VPWR VPWR _1194_ sky130_fd_sc_hd__nand2_1
X_3541_ _1612_ myPWM.g_pwm_channel\[1\].CHANNEL.data_double_buff\[37\] VGND VGND VPWR
+ VPWR _1125_ sky130_fd_sc_hd__nor2_1
XANTENNA__3384__A _0889_ VGND VGND VPWR VPWR sky130_fd_sc_hd__diode_2
X_3472_ _1053_ _1054_ VGND VGND VPWR VPWR _1056_ sky130_fd_sc_hd__nand2_1
XTAP_TAPCELL_ROW_71_1000 VGND VPWR sky130_fd_sc_hd__tapvpwrvgnd_1
X_2423_ myPWM.g_pwm_channel\[1\].CHANNEL.f_count\[30\] VGND VGND VPWR VPWR _1649_
+ sky130_fd_sc_hd__inv_2
X_2354_ net212 myPWM.g_pwm_channel\[1\].CHANNEL.data_double_buff\[53\] net94 VGND
+ VGND VPWR VPWR _0248_ sky130_fd_sc_hd__mux2_1
XFILLER_69_445 VGND VGND VPWR VPWR sky130_fd_sc_hd__decap_3
XFILLER_96_253 VPWR VGND VPWR VGND sky130_ef_sc_hd__decap_12
XFILLER_69_478 VGND VGND VPWR VPWR sky130_fd_sc_hd__fill_1
X_2285_ net287 net44 net82 VGND VGND VPWR VPWR _0182_ sky130_fd_sc_hd__mux2_1
X_4024_ clknet_leaf_6_CLK _0216_ net138 VGND VGND VPWR VPWR myPWM.g_pwm_channel\[1\].CHANNEL.data_buff\[21\]
+ sky130_fd_sc_hd__dfrtp_1
XFILLER_64_161 VPWR VGND VPWR VGND sky130_ef_sc_hd__decap_12
XFILLER_25_559 VGND VGND VPWR VPWR sky130_fd_sc_hd__fill_1
XFILLER_20_242 VGND VGND VPWR VPWR sky130_fd_sc_hd__decap_3
XFILLER_20_275 VPWR VGND VPWR VGND sky130_ef_sc_hd__decap_12
X_3808_ clknet_leaf_21_CLK _0034_ net153 VGND VGND VPWR VPWR myPWM.g_pwm_channel\[0\].CHANNEL.data_buff\[33\]
+ sky130_fd_sc_hd__dfrtp_1
XANTENNA_fanout128_X net128 VGND VGND VPWR VPWR sky130_fd_sc_hd__diode_2
XFILLER_4_419 VGND VGND VPWR VPWR sky130_fd_sc_hd__fill_1
X_3739_ _1317_ _1318_ _1625_ VGND VGND VPWR VPWR _1323_ sky130_fd_sc_hd__a21oi_1
XFILLER_69_27 VPWR VGND VPWR VGND sky130_ef_sc_hd__decap_12
XFILLER_18_53 VPWR VGND VPWR VGND sky130_ef_sc_hd__decap_12
XANTENNA__2294__A1 net54 VGND VGND VPWR VPWR sky130_fd_sc_hd__diode_2
XTAP_TAPCELL_ROW_26_510 VGND VPWR sky130_fd_sc_hd__tapvpwrvgnd_1
XANTENNA__3469__A myPWM.g_pwm_channel\[1\].CHANNEL.data_double_buff\[29\] VGND VGND
+ VPWR VPWR sky130_fd_sc_hd__diode_2
XFILLER_34_85 VPWR VGND VPWR VGND sky130_ef_sc_hd__decap_12
XANTENNA__3915__RESET_B net133 VGND VGND VPWR VPWR sky130_fd_sc_hd__diode_2
XFILLER_11_286 VPWR VGND VPWR VGND sky130_ef_sc_hd__decap_12
XFILLER_50_51 VPWR VGND VPWR VGND sky130_ef_sc_hd__decap_12
XFILLER_7_279 VGND VGND VPWR VPWR sky130_fd_sc_hd__fill_1
XANTENNA__2312__S net76 VGND VGND VPWR VPWR sky130_fd_sc_hd__diode_2
XANTENNA_input58_X net58 VGND VGND VPWR VPWR sky130_fd_sc_hd__diode_2
XFILLER_3_441 VGND VGND VPWR VPWR sky130_fd_sc_hd__decap_6
XFILLER_3_485 VPWR VGND VPWR VGND sky130_ef_sc_hd__decap_12
XFILLER_78_253 VPWR VGND VPWR VGND sky130_ef_sc_hd__decap_12
XFILLER_66_437 VGND VGND VPWR VPWR sky130_fd_sc_hd__fill_1
XFILLER_38_106 VGND VGND VPWR VPWR sky130_fd_sc_hd__decap_6