* NGSPICE file created from sample_proj.ext - technology: sky130A

* Black-box entry subcircuit for sky130_fd_sc_hd__decap_3 abstract view
.subckt sky130_fd_sc_hd__decap_3 VGND VNB VPB VPWR
.ends

* Black-box entry subcircuit for sky130_fd_sc_hd__tapvpwrvgnd_1 abstract view
.subckt sky130_fd_sc_hd__tapvpwrvgnd_1 VGND VPWR
.ends

* Black-box entry subcircuit for sky130_fd_sc_hd__decap_8 abstract view
.subckt sky130_fd_sc_hd__decap_8 VGND VNB VPB VPWR
.ends

* Black-box entry subcircuit for sky130_ef_sc_hd__decap_12 abstract view
.subckt sky130_ef_sc_hd__decap_12 VPWR VGND VPB VNB
.ends

* Black-box entry subcircuit for sky130_fd_sc_hd__fill_2 abstract view
.subckt sky130_fd_sc_hd__fill_2 VGND VNB VPB VPWR
.ends

* Black-box entry subcircuit for sky130_fd_sc_hd__nand2b_1 abstract view
.subckt sky130_fd_sc_hd__nand2b_1 A_N B VGND VNB VPB VPWR Y
.ends

* Black-box entry subcircuit for sky130_fd_sc_hd__decap_6 abstract view
.subckt sky130_fd_sc_hd__decap_6 VGND VNB VPB VPWR
.ends

* Black-box entry subcircuit for sky130_fd_sc_hd__nand2_1 abstract view
.subckt sky130_fd_sc_hd__nand2_1 A B VGND VNB VPB VPWR Y
.ends

* Black-box entry subcircuit for sky130_fd_sc_hd__and2b_1 abstract view
.subckt sky130_fd_sc_hd__and2b_1 A_N B VGND VNB VPB VPWR X
.ends

* Black-box entry subcircuit for sky130_fd_sc_hd__dfrtp_1 abstract view
.subckt sky130_fd_sc_hd__dfrtp_1 CLK D RESET_B VGND VNB VPB VPWR Q
.ends

* Black-box entry subcircuit for sky130_fd_sc_hd__nor2_1 abstract view
.subckt sky130_fd_sc_hd__nor2_1 A B VGND VNB VPB VPWR Y
.ends

* Black-box entry subcircuit for sky130_fd_sc_hd__a21oi_1 abstract view
.subckt sky130_fd_sc_hd__a21oi_1 A1 A2 B1 VGND VNB VPB VPWR Y
.ends

* Black-box entry subcircuit for sky130_fd_sc_hd__inv_2 abstract view
.subckt sky130_fd_sc_hd__inv_2 A VGND VNB VPB VPWR Y
.ends

* Black-box entry subcircuit for sky130_fd_sc_hd__fill_1 abstract view
.subckt sky130_fd_sc_hd__fill_1 VGND VNB VPB VPWR
.ends

* Black-box entry subcircuit for sky130_fd_sc_hd__nand2_2 abstract view
.subckt sky130_fd_sc_hd__nand2_2 A B VGND VNB VPB VPWR Y
.ends

* Black-box entry subcircuit for sky130_fd_sc_hd__xnor2_2 abstract view
.subckt sky130_fd_sc_hd__xnor2_2 A B VGND VNB VPB VPWR Y
.ends

* Black-box entry subcircuit for sky130_fd_sc_hd__o2111ai_1 abstract view
.subckt sky130_fd_sc_hd__o2111ai_1 A1 A2 B1 C1 D1 VGND VNB VPB VPWR Y
.ends

* Black-box entry subcircuit for sky130_fd_sc_hd__or4_1 abstract view
.subckt sky130_fd_sc_hd__or4_1 A B C D VGND VNB VPB VPWR X
.ends

* Black-box entry subcircuit for sky130_fd_sc_hd__a211o_1 abstract view
.subckt sky130_fd_sc_hd__a211o_1 A1 A2 B1 C1 VGND VNB VPB VPWR X
.ends

* Black-box entry subcircuit for sky130_fd_sc_hd__xnor2_1 abstract view
.subckt sky130_fd_sc_hd__xnor2_1 A B VGND VNB VPB VPWR Y
.ends

* Black-box entry subcircuit for sky130_fd_sc_hd__a21o_1 abstract view
.subckt sky130_fd_sc_hd__a21o_1 A1 A2 B1 VGND VNB VPB VPWR X
.ends

* Black-box entry subcircuit for sky130_fd_sc_hd__and3_1 abstract view
.subckt sky130_fd_sc_hd__and3_1 A B C VGND VNB VPB VPWR X
.ends

* Black-box entry subcircuit for sky130_fd_sc_hd__decap_4 abstract view
.subckt sky130_fd_sc_hd__decap_4 VGND VNB VPB VPWR
.ends

* Black-box entry subcircuit for sky130_fd_sc_hd__buf_2 abstract view
.subckt sky130_fd_sc_hd__buf_2 A VGND VNB VPB VPWR X
.ends

* Black-box entry subcircuit for sky130_fd_sc_hd__nand3_1 abstract view
.subckt sky130_fd_sc_hd__nand3_1 A B C VGND VNB VPB VPWR Y
.ends

* Black-box entry subcircuit for sky130_fd_sc_hd__a2bb2o_1 abstract view
.subckt sky130_fd_sc_hd__a2bb2o_1 A1_N A2_N B1 B2 VGND VNB VPB VPWR X
.ends

* Black-box entry subcircuit for sky130_fd_sc_hd__o22a_1 abstract view
.subckt sky130_fd_sc_hd__o22a_1 A1 A2 B1 B2 VGND VNB VPB VPWR X
.ends

* Black-box entry subcircuit for sky130_fd_sc_hd__or2_1 abstract view
.subckt sky130_fd_sc_hd__or2_1 A B VGND VNB VPB VPWR X
.ends

* Black-box entry subcircuit for sky130_fd_sc_hd__dfrtp_2 abstract view
.subckt sky130_fd_sc_hd__dfrtp_2 CLK D RESET_B VGND VNB VPB VPWR Q
.ends

* Black-box entry subcircuit for sky130_fd_sc_hd__nand3_2 abstract view
.subckt sky130_fd_sc_hd__nand3_2 A B C VGND VNB VPB VPWR Y
.ends

* Black-box entry subcircuit for sky130_fd_sc_hd__and4b_1 abstract view
.subckt sky130_fd_sc_hd__and4b_1 A_N B C D VGND VNB VPB VPWR X
.ends

* Black-box entry subcircuit for sky130_fd_sc_hd__a311o_1 abstract view
.subckt sky130_fd_sc_hd__a311o_1 A1 A2 A3 B1 C1 VGND VNB VPB VPWR X
.ends

* Black-box entry subcircuit for sky130_fd_sc_hd__a31o_1 abstract view
.subckt sky130_fd_sc_hd__a31o_1 A1 A2 A3 B1 VGND VNB VPB VPWR X
.ends

* Black-box entry subcircuit for sky130_fd_sc_hd__a22o_1 abstract view
.subckt sky130_fd_sc_hd__a22o_1 A1 A2 B1 B2 VGND VNB VPB VPWR X
.ends

* Black-box entry subcircuit for sky130_fd_sc_hd__o31ai_1 abstract view
.subckt sky130_fd_sc_hd__o31ai_1 A1 A2 A3 B1 VGND VNB VPB VPWR Y
.ends

* Black-box entry subcircuit for sky130_fd_sc_hd__xor2_2 abstract view
.subckt sky130_fd_sc_hd__xor2_2 A B VGND VNB VPB VPWR X
.ends

* Black-box entry subcircuit for sky130_fd_sc_hd__clkbuf_4 abstract view
.subckt sky130_fd_sc_hd__clkbuf_4 A VGND VNB VPB VPWR X
.ends

* Black-box entry subcircuit for sky130_fd_sc_hd__xor2_1 abstract view
.subckt sky130_fd_sc_hd__xor2_1 A B VGND VNB VPB VPWR X
.ends

* Black-box entry subcircuit for sky130_fd_sc_hd__o22ai_1 abstract view
.subckt sky130_fd_sc_hd__o22ai_1 A1 A2 B1 B2 VGND VNB VPB VPWR Y
.ends

* Black-box entry subcircuit for sky130_fd_sc_hd__a221oi_2 abstract view
.subckt sky130_fd_sc_hd__a221oi_2 A1 A2 B1 B2 C1 VGND VNB VPB VPWR Y
.ends

* Black-box entry subcircuit for sky130_fd_sc_hd__nand4_1 abstract view
.subckt sky130_fd_sc_hd__nand4_1 A B C D VGND VNB VPB VPWR Y
.ends

* Black-box entry subcircuit for sky130_fd_sc_hd__clkbuf_2 abstract view
.subckt sky130_fd_sc_hd__clkbuf_2 A VGND VNB VPB VPWR X
.ends

* Black-box entry subcircuit for sky130_fd_sc_hd__clkbuf_8 abstract view
.subckt sky130_fd_sc_hd__clkbuf_8 A VGND VNB VPB VPWR X
.ends

* Black-box entry subcircuit for sky130_fd_sc_hd__o31a_1 abstract view
.subckt sky130_fd_sc_hd__o31a_1 A1 A2 A3 B1 VGND VNB VPB VPWR X
.ends

* Black-box entry subcircuit for sky130_fd_sc_hd__a31oi_1 abstract view
.subckt sky130_fd_sc_hd__a31oi_1 A1 A2 A3 B1 VGND VNB VPB VPWR Y
.ends

* Black-box entry subcircuit for sky130_fd_sc_hd__or4b_1 abstract view
.subckt sky130_fd_sc_hd__or4b_1 A B C D_N VGND VNB VPB VPWR X
.ends

* Black-box entry subcircuit for sky130_fd_sc_hd__and3b_1 abstract view
.subckt sky130_fd_sc_hd__and3b_1 A_N B C VGND VNB VPB VPWR X
.ends

* Black-box entry subcircuit for sky130_fd_sc_hd__o21ai_1 abstract view
.subckt sky130_fd_sc_hd__o21ai_1 A1 A2 B1 VGND VNB VPB VPWR Y
.ends

* Black-box entry subcircuit for sky130_fd_sc_hd__clkinv_2 abstract view
.subckt sky130_fd_sc_hd__clkinv_2 A VGND VNB VPB VPWR Y
.ends

* Black-box entry subcircuit for sky130_fd_sc_hd__or3b_2 abstract view
.subckt sky130_fd_sc_hd__or3b_2 A B C_N VGND VNB VPB VPWR X
.ends

* Black-box entry subcircuit for sky130_fd_sc_hd__o221a_1 abstract view
.subckt sky130_fd_sc_hd__o221a_1 A1 A2 B1 B2 C1 VGND VNB VPB VPWR X
.ends

* Black-box entry subcircuit for sky130_fd_sc_hd__or3_1 abstract view
.subckt sky130_fd_sc_hd__or3_1 A B C VGND VNB VPB VPWR X
.ends

* Black-box entry subcircuit for sky130_fd_sc_hd__and2_1 abstract view
.subckt sky130_fd_sc_hd__and2_1 A B VGND VNB VPB VPWR X
.ends

* Black-box entry subcircuit for sky130_fd_sc_hd__and4_1 abstract view
.subckt sky130_fd_sc_hd__and4_1 A B C D VGND VNB VPB VPWR X
.ends

* Black-box entry subcircuit for sky130_fd_sc_hd__a21bo_1 abstract view
.subckt sky130_fd_sc_hd__a21bo_1 A1 A2 B1_N VGND VNB VPB VPWR X
.ends

* Black-box entry subcircuit for sky130_fd_sc_hd__or2_2 abstract view
.subckt sky130_fd_sc_hd__or2_2 A B VGND VNB VPB VPWR X
.ends

* Black-box entry subcircuit for sky130_fd_sc_hd__a21boi_2 abstract view
.subckt sky130_fd_sc_hd__a21boi_2 A1 A2 B1_N VGND VNB VPB VPWR Y
.ends

* Black-box entry subcircuit for sky130_fd_sc_hd__clkbuf_16 abstract view
.subckt sky130_fd_sc_hd__clkbuf_16 A VGND VNB VPB VPWR X
.ends

* Black-box entry subcircuit for sky130_fd_sc_hd__o21a_1 abstract view
.subckt sky130_fd_sc_hd__o21a_1 A1 A2 B1 VGND VNB VPB VPWR X
.ends

* Black-box entry subcircuit for sky130_fd_sc_hd__a221oi_4 abstract view
.subckt sky130_fd_sc_hd__a221oi_4 A1 A2 B1 B2 C1 VGND VNB VPB VPWR Y
.ends

* Black-box entry subcircuit for sky130_fd_sc_hd__o21bai_1 abstract view
.subckt sky130_fd_sc_hd__o21bai_1 A1 A2 B1_N VGND VNB VPB VPWR Y
.ends

* Black-box entry subcircuit for sky130_fd_sc_hd__buf_1 abstract view
.subckt sky130_fd_sc_hd__buf_1 A VGND VNB VPB VPWR X
.ends

* Black-box entry subcircuit for sky130_fd_sc_hd__o41a_1 abstract view
.subckt sky130_fd_sc_hd__o41a_1 A1 A2 A3 A4 B1 VGND VNB VPB VPWR X
.ends

* Black-box entry subcircuit for sky130_fd_sc_hd__o31ai_4 abstract view
.subckt sky130_fd_sc_hd__o31ai_4 A1 A2 A3 B1 VGND VNB VPB VPWR Y
.ends

* Black-box entry subcircuit for sky130_fd_sc_hd__o211ai_1 abstract view
.subckt sky130_fd_sc_hd__o211ai_1 A1 A2 B1 C1 VGND VNB VPB VPWR Y
.ends

* Black-box entry subcircuit for sky130_fd_sc_hd__o21ba_1 abstract view
.subckt sky130_fd_sc_hd__o21ba_1 A1 A2 B1_N VGND VNB VPB VPWR X
.ends

* Black-box entry subcircuit for sky130_fd_sc_hd__or3b_1 abstract view
.subckt sky130_fd_sc_hd__or3b_1 A B C_N VGND VNB VPB VPWR X
.ends

* Black-box entry subcircuit for sky130_fd_sc_hd__xnor2_4 abstract view
.subckt sky130_fd_sc_hd__xnor2_4 A B VGND VNB VPB VPWR Y
.ends

* Black-box entry subcircuit for sky130_fd_sc_hd__or4bb_1 abstract view
.subckt sky130_fd_sc_hd__or4bb_1 A B C_N D_N VGND VNB VPB VPWR X
.ends

* Black-box entry subcircuit for sky130_fd_sc_hd__a41oi_1 abstract view
.subckt sky130_fd_sc_hd__a41oi_1 A1 A2 A3 A4 B1 VGND VNB VPB VPWR Y
.ends

* Black-box entry subcircuit for sky130_fd_sc_hd__o211a_1 abstract view
.subckt sky130_fd_sc_hd__o211a_1 A1 A2 B1 C1 VGND VNB VPB VPWR X
.ends

* Black-box entry subcircuit for sky130_fd_sc_hd__clkbuf_1 abstract view
.subckt sky130_fd_sc_hd__clkbuf_1 A VGND VNB VPB VPWR X
.ends

* Black-box entry subcircuit for sky130_fd_sc_hd__o311a_1 abstract view
.subckt sky130_fd_sc_hd__o311a_1 A1 A2 A3 B1 C1 VGND VNB VPB VPWR X
.ends

* Black-box entry subcircuit for sky130_fd_sc_hd__xor2_4 abstract view
.subckt sky130_fd_sc_hd__xor2_4 A B VGND VNB VPB VPWR X
.ends

* Black-box entry subcircuit for sky130_fd_sc_hd__nand2_4 abstract view
.subckt sky130_fd_sc_hd__nand2_4 A B VGND VNB VPB VPWR Y
.ends

* Black-box entry subcircuit for sky130_fd_sc_hd__a21oi_2 abstract view
.subckt sky130_fd_sc_hd__a21oi_2 A1 A2 B1 VGND VNB VPB VPWR Y
.ends

* Black-box entry subcircuit for sky130_fd_sc_hd__o32ai_1 abstract view
.subckt sky130_fd_sc_hd__o32ai_1 A1 A2 A3 B1 B2 VGND VNB VPB VPWR Y
.ends

* Black-box entry subcircuit for sky130_fd_sc_hd__a41o_1 abstract view
.subckt sky130_fd_sc_hd__a41o_1 A1 A2 A3 A4 B1 VGND VNB VPB VPWR X
.ends

* Black-box entry subcircuit for sky130_fd_sc_hd__a32o_1 abstract view
.subckt sky130_fd_sc_hd__a32o_1 A1 A2 A3 B1 B2 VGND VNB VPB VPWR X
.ends

* Black-box entry subcircuit for sky130_fd_sc_hd__a41oi_4 abstract view
.subckt sky130_fd_sc_hd__a41oi_4 A1 A2 A3 A4 B1 VGND VNB VPB VPWR Y
.ends

* Black-box entry subcircuit for sky130_fd_sc_hd__dfrtp_4 abstract view
.subckt sky130_fd_sc_hd__dfrtp_4 CLK D RESET_B VGND VNB VPB VPWR Q
.ends

* Black-box entry subcircuit for sky130_fd_sc_hd__o21ai_2 abstract view
.subckt sky130_fd_sc_hd__o21ai_2 A1 A2 B1 VGND VNB VPB VPWR Y
.ends

* Black-box entry subcircuit for sky130_fd_sc_hd__a221o_1 abstract view
.subckt sky130_fd_sc_hd__a221o_1 A1 A2 B1 B2 C1 VGND VNB VPB VPWR X
.ends

* Black-box entry subcircuit for sky130_fd_sc_hd__a211oi_2 abstract view
.subckt sky130_fd_sc_hd__a211oi_2 A1 A2 B1 C1 VGND VNB VPB VPWR Y
.ends

* Black-box entry subcircuit for sky130_fd_sc_hd__nor3_4 abstract view
.subckt sky130_fd_sc_hd__nor3_4 A B C VGND VNB VPB VPWR Y
.ends

* Black-box entry subcircuit for sky130_fd_sc_hd__buf_4 abstract view
.subckt sky130_fd_sc_hd__buf_4 A VGND VNB VPB VPWR X
.ends

* Black-box entry subcircuit for sky130_fd_sc_hd__a2111o_1 abstract view
.subckt sky130_fd_sc_hd__a2111o_1 A1 A2 B1 C1 D1 VGND VNB VPB VPWR X
.ends

* Black-box entry subcircuit for sky130_fd_sc_hd__o221ai_2 abstract view
.subckt sky130_fd_sc_hd__o221ai_2 A1 A2 B1 B2 C1 VGND VNB VPB VPWR Y
.ends

* Black-box entry subcircuit for sky130_fd_sc_hd__nor3_1 abstract view
.subckt sky130_fd_sc_hd__nor3_1 A B C VGND VNB VPB VPWR Y
.ends

* Black-box entry subcircuit for sky130_fd_sc_hd__o31ai_2 abstract view
.subckt sky130_fd_sc_hd__o31ai_2 A1 A2 A3 B1 VGND VNB VPB VPWR Y
.ends

* Black-box entry subcircuit for sky130_fd_sc_hd__nand4_2 abstract view
.subckt sky130_fd_sc_hd__nand4_2 A B C D VGND VNB VPB VPWR Y
.ends

* Black-box entry subcircuit for sky130_fd_sc_hd__and4bb_1 abstract view
.subckt sky130_fd_sc_hd__and4bb_1 A_N B_N C D VGND VNB VPB VPWR X
.ends

* Black-box entry subcircuit for sky130_fd_sc_hd__a211oi_1 abstract view
.subckt sky130_fd_sc_hd__a211oi_1 A1 A2 B1 C1 VGND VNB VPB VPWR Y
.ends

* Black-box entry subcircuit for sky130_fd_sc_hd__a311oi_1 abstract view
.subckt sky130_fd_sc_hd__a311oi_1 A1 A2 A3 B1 C1 VGND VNB VPB VPWR Y
.ends

* Black-box entry subcircuit for sky130_fd_sc_hd__nand3b_1 abstract view
.subckt sky130_fd_sc_hd__nand3b_1 A_N B C VGND VNB VPB VPWR Y
.ends

* Black-box entry subcircuit for sky130_fd_sc_hd__a21boi_4 abstract view
.subckt sky130_fd_sc_hd__a21boi_4 A1 A2 B1_N VGND VNB VPB VPWR Y
.ends

* Black-box entry subcircuit for sky130_fd_sc_hd__nor3b_1 abstract view
.subckt sky130_fd_sc_hd__nor3b_1 A B C_N VGND VNB VPB VPWR Y
.ends

* Black-box entry subcircuit for sky130_fd_sc_hd__o211ai_4 abstract view
.subckt sky130_fd_sc_hd__o211ai_4 A1 A2 B1 C1 VGND VNB VPB VPWR Y
.ends

* Black-box entry subcircuit for sky130_fd_sc_hd__a21o_4 abstract view
.subckt sky130_fd_sc_hd__a21o_4 A1 A2 B1 VGND VNB VPB VPWR X
.ends

* Black-box entry subcircuit for sky130_fd_sc_hd__o221ai_4 abstract view
.subckt sky130_fd_sc_hd__o221ai_4 A1 A2 B1 B2 C1 VGND VNB VPB VPWR Y
.ends

* Black-box entry subcircuit for sky130_fd_sc_hd__a21oi_4 abstract view
.subckt sky130_fd_sc_hd__a21oi_4 A1 A2 B1 VGND VNB VPB VPWR Y
.ends

.subckt sample_proj VGND VPWR clk done enable nrst out[0] out[10] out[11] out[12]
+ out[13] out[14] out[15] out[16] out[17] out[18] out[19] out[1] out[20] out[21] out[22]
+ out[23] out[24] out[25] out[26] out[27] out[28] out[29] out[2] out[30] out[31] out[32]
+ out[33] out[3] out[4] out[5] out[6] out[7] out[8] out[9] prescaler[0] prescaler[10]
+ prescaler[11] prescaler[12] prescaler[13] prescaler[1] prescaler[2] prescaler[3]
+ prescaler[4] prescaler[5] prescaler[6] prescaler[7] prescaler[8] prescaler[9] stop
XFILLER_39_277 VGND VGND VPWR VPWR sky130_fd_sc_hd__decap_3
XTAP_TAPCELL_ROW_17_191 VGND VPWR sky130_fd_sc_hd__tapvpwrvgnd_1
XFILLER_22_188 VGND VGND VPWR VPWR sky130_fd_sc_hd__decap_8
XTAP_TAPCELL_ROW_9_148 VGND VPWR sky130_fd_sc_hd__tapvpwrvgnd_1
XPHY_EDGE_ROW_37_Left_86 VGND VGND VPWR VPWR sky130_fd_sc_hd__decap_3
XFILLER_13_100 VPWR VGND VPWR VGND sky130_ef_sc_hd__decap_12
XFILLER_26_85 VGND VGND VPWR VPWR sky130_fd_sc_hd__fill_2
XFILLER_42_73 VGND VGND VPWR VPWR sky130_fd_sc_hd__fill_2
X_1270_ net66 _0608_ VGND VGND VPWR VPWR _0609_ sky130_fd_sc_hd__nand2b_1
XFILLER_44_280 VGND VGND VPWR VPWR sky130_fd_sc_hd__decap_6
X_0985_ clk_divider.count_out\[15\] _0358_ VGND VGND VPWR VPWR _0361_ sky130_fd_sc_hd__nand2_1
XFILLER_41_250 VPWR VGND VPWR VGND sky130_ef_sc_hd__decap_12
X_0770_ _0133_ _0145_ VGND VGND VPWR VPWR _0146_ sky130_fd_sc_hd__and2b_1
X_1322_ clknet_2_0__leaf_clk clk_divider.next_count\[9\] net83 VGND VGND VPWR VPWR
+ clk_divider.count_out\[9\] sky130_fd_sc_hd__dfrtp_1
X_1253_ _0572_ _0596_ VGND VGND VPWR VPWR clk_divider.next_flag sky130_fd_sc_hd__nor2_1
X_1184_ clk_divider.count_out\[22\] _0522_ clk_divider.count_out\[23\] VGND VGND VPWR
+ VPWR _0533_ sky130_fd_sc_hd__a21oi_1
XFILLER_32_250 VGND VGND VPWR VPWR sky130_fd_sc_hd__fill_2
X_0968_ _0343_ VGND VGND VPWR VPWR _0344_ sky130_fd_sc_hd__inv_2
X_0899_ _0273_ _0274_ VGND VGND VPWR VPWR _0275_ sky130_fd_sc_hd__nand2_1
XFILLER_15_206 VGND VGND VPWR VPWR sky130_fd_sc_hd__fill_1
XFILLER_30_209 VGND VGND VPWR VPWR sky130_fd_sc_hd__decap_6
XFILLER_23_53 VGND VGND VPWR VPWR sky130_fd_sc_hd__decap_3
XFILLER_2_165 VPWR VGND VPWR VGND sky130_ef_sc_hd__decap_12
XFILLER_2_121 VPWR VGND VPWR VGND sky130_ef_sc_hd__decap_12
XTAP_TAPCELL_ROW_48_348 VGND VPWR sky130_fd_sc_hd__tapvpwrvgnd_1
XFILLER_0_57 VPWR VGND VPWR VGND sky130_ef_sc_hd__decap_12
XFILLER_17_9 VPWR VGND VPWR VGND sky130_ef_sc_hd__decap_12
XFILLER_9_55 VGND VGND VPWR VPWR sky130_fd_sc_hd__fill_1
X_0822_ _0196_ _0197_ VGND VGND VPWR VPWR _0198_ sky130_fd_sc_hd__nand2_2
XTAP_TAPCELL_ROW_31_259 VGND VPWR sky130_fd_sc_hd__tapvpwrvgnd_1
X_0684_ _0005_ net14 VGND VGND VPWR VPWR _0060_ sky130_fd_sc_hd__nand2_1
X_0753_ _0099_ _0128_ VGND VGND VPWR VPWR _0129_ sky130_fd_sc_hd__xnor2_2
XPHY_EDGE_ROW_24_Left_73 VGND VGND VPWR VPWR sky130_fd_sc_hd__decap_3
X_1305_ _0617_ _0618_ VGND VGND VPWR VPWR net38 sky130_fd_sc_hd__nor2_1
X_1236_ _0303_ _0542_ _0577_ _0578_ _0579_ VGND VGND VPWR VPWR _0580_ sky130_fd_sc_hd__o2111ai_1
X_1167_ net60 net56 _0517_ _0518_ VGND VGND VPWR VPWR _0519_ sky130_fd_sc_hd__or4_1
XFILLER_12_209 VPWR VGND VPWR VGND sky130_ef_sc_hd__decap_12
XTAP_TAPCELL_ROW_22_215 VGND VPWR sky130_fd_sc_hd__tapvpwrvgnd_1
X_1098_ net61 net57 net54 _0032_ VGND VGND VPWR VPWR _0462_ sky130_fd_sc_hd__a211o_1
XTAP_TAPCELL_ROW_45_329 VGND VPWR sky130_fd_sc_hd__tapvpwrvgnd_1
XFILLER_18_20 VGND VGND VPWR VPWR sky130_fd_sc_hd__decap_8
XFILLER_18_53 VGND VGND VPWR VPWR sky130_fd_sc_hd__fill_1
XFILLER_18_97 VPWR VGND VPWR VGND sky130_ef_sc_hd__decap_12
XFILLER_34_85 VPWR VGND VPWR VGND sky130_ef_sc_hd__decap_12
XFILLER_7_279 VGND VGND VPWR VPWR sky130_fd_sc_hd__fill_1
XFILLER_38_139 VGND VGND VPWR VPWR sky130_fd_sc_hd__fill_1
X_1021_ _0028_ _0396_ VGND VGND VPWR VPWR _0397_ sky130_fd_sc_hd__xnor2_1
X_0805_ _0173_ _0180_ _0179_ VGND VGND VPWR VPWR _0181_ sky130_fd_sc_hd__a21o_1
X_0667_ net74 clk_divider.rollover_flag _0044_ VGND VGND VPWR VPWR _0046_ sky130_fd_sc_hd__and3_1
X_0736_ _0101_ _0111_ VGND VGND VPWR VPWR _0112_ sky130_fd_sc_hd__nor2_1
X_1219_ _0559_ _0560_ _0561_ _0562_ VGND VGND VPWR VPWR _0563_ sky130_fd_sc_hd__or4_1
XFILLER_29_52 VGND VGND VPWR VPWR sky130_fd_sc_hd__decap_4
XFILLER_29_74 VPWR VGND VPWR VGND sky130_ef_sc_hd__decap_12
XFILLER_28_194 VGND VGND VPWR VPWR sky130_fd_sc_hd__fill_2
XTAP_TAPCELL_ROW_41_310 VGND VPWR sky130_fd_sc_hd__tapvpwrvgnd_1
XFILLER_13_3 VPWR VGND VPWR VGND sky130_ef_sc_hd__decap_12
X_1004_ net78 _0035_ VGND VGND VPWR VPWR _0380_ sky130_fd_sc_hd__nor2_1
X_0719_ _0010_ _0011_ VGND VGND VPWR VPWR _0095_ sky130_fd_sc_hd__nor2_1
XPHY_EDGE_ROW_11_Left_60 VGND VGND VPWR VPWR sky130_fd_sc_hd__decap_3
XFILLER_40_189 VGND VGND VPWR VPWR sky130_fd_sc_hd__decap_6
Xoutput20 net20 VGND VGND VPWR VPWR out[10] sky130_fd_sc_hd__buf_2
Xoutput31 net31 VGND VGND VPWR VPWR out[20] sky130_fd_sc_hd__buf_2
Xoutput42 net42 VGND VGND VPWR VPWR out[30] sky130_fd_sc_hd__buf_2
XFILLER_48_245 VGND VGND VPWR VPWR sky130_fd_sc_hd__decap_3
XFILLER_16_153 VGND VGND VPWR VPWR sky130_fd_sc_hd__fill_2
XFILLER_16_186 VGND VGND VPWR VPWR sky130_fd_sc_hd__fill_1
XFILLER_39_223 VGND VGND VPWR VPWR sky130_fd_sc_hd__fill_1
XFILLER_39_256 VGND VGND VPWR VPWR sky130_fd_sc_hd__fill_1
XTAP_TAPCELL_ROW_17_192 VGND VPWR sky130_fd_sc_hd__tapvpwrvgnd_1
XTAP_TAPCELL_ROW_9_149 VGND VPWR sky130_fd_sc_hd__tapvpwrvgnd_1
XFILLER_13_167 VGND VGND VPWR VPWR sky130_fd_sc_hd__fill_1
XFILLER_26_42 VGND VGND VPWR VPWR sky130_fd_sc_hd__fill_1
XFILLER_42_96 VGND VGND VPWR VPWR sky130_fd_sc_hd__fill_1
XFILLER_42_85 VGND VGND VPWR VPWR sky130_fd_sc_hd__decap_4
XFILLER_42_41 VPWR VGND VPWR VGND sky130_ef_sc_hd__decap_12
XFILLER_3_57 VPWR VGND VPWR VGND sky130_ef_sc_hd__decap_12
XTAP_TAPCELL_ROW_14_173 VGND VPWR sky130_fd_sc_hd__tapvpwrvgnd_1
X_0984_ clk_divider.count_out\[15\] _0358_ VGND VGND VPWR VPWR _0360_ sky130_fd_sc_hd__nor2_1
XFILLER_27_259 VPWR VGND VPWR VGND sky130_ef_sc_hd__decap_12
XTAP_TAPCELL_ROW_5_130 VGND VPWR sky130_fd_sc_hd__tapvpwrvgnd_1
XTAP_TAPCELL_ROW_28_243 VGND VPWR sky130_fd_sc_hd__tapvpwrvgnd_1
XFILLER_41_284 VGND VGND VPWR VPWR sky130_fd_sc_hd__decap_3
X_1321_ clknet_2_0__leaf_clk clk_divider.next_count\[8\] net83 VGND VGND VPWR VPWR
+ clk_divider.count_out\[8\] sky130_fd_sc_hd__dfrtp_1
X_1252_ _0576_ _0583_ _0588_ _0595_ VGND VGND VPWR VPWR _0596_ sky130_fd_sc_hd__or4_1
X_1183_ clk_divider.count_out\[23\] clk_divider.count_out\[22\] _0522_ VGND VGND VPWR
+ VPWR _0532_ sky130_fd_sc_hd__and3_1
XFILLER_17_281 VGND VGND VPWR VPWR sky130_fd_sc_hd__decap_8
X_0967_ _0238_ _0342_ VGND VGND VPWR VPWR _0343_ sky130_fd_sc_hd__xnor2_2
X_0898_ _0250_ _0253_ _0272_ VGND VGND VPWR VPWR _0274_ sky130_fd_sc_hd__nand3_1
XPHY_EDGE_ROW_12_Right_12 VGND VGND VPWR VPWR sky130_fd_sc_hd__decap_3
XPHY_EDGE_ROW_21_Right_21 VGND VGND VPWR VPWR sky130_fd_sc_hd__decap_3
XFILLER_23_21 VGND VGND VPWR VPWR sky130_fd_sc_hd__fill_2
XPHY_EDGE_ROW_30_Right_30 VGND VGND VPWR VPWR sky130_fd_sc_hd__decap_3
XFILLER_2_177 VPWR VGND VPWR VGND sky130_ef_sc_hd__decap_12
XFILLER_2_133 VGND VGND VPWR VPWR sky130_fd_sc_hd__decap_6
XTAP_TAPCELL_ROW_48_349 VGND VPWR sky130_fd_sc_hd__tapvpwrvgnd_1
XFILLER_0_69 VPWR VGND VPWR VGND sky130_ef_sc_hd__decap_12
XFILLER_14_251 VGND VGND VPWR VPWR sky130_fd_sc_hd__fill_1
X_0821_ _0168_ _0194_ _0149_ _0167_ VGND VGND VPWR VPWR _0197_ sky130_fd_sc_hd__a211o_1
X_0752_ _0118_ _0126_ VGND VGND VPWR VPWR _0128_ sky130_fd_sc_hd__xnor2_2
XFILLER_43_3 VPWR VGND VPWR VGND sky130_ef_sc_hd__decap_12
X_0683_ _0056_ _0058_ VGND VGND VPWR VPWR _0059_ sky130_fd_sc_hd__nor2_1
X_1304_ _0600_ _0604_ _0620_ VGND VGND VPWR VPWR net37 sky130_fd_sc_hd__and3_1
X_1235_ _0445_ _0448_ _0449_ net8 VGND VGND VPWR VPWR _0579_ sky130_fd_sc_hd__a211o_1
X_1166_ clk_divider.count_out\[19\] _0509_ clk_divider.count_out\[20\] VGND VGND VPWR
+ VPWR _0518_ sky130_fd_sc_hd__a21oi_1
XFILLER_20_232 VGND VGND VPWR VPWR sky130_fd_sc_hd__fill_2
X_1097_ _0461_ VGND VGND VPWR VPWR clk_divider.next_count\[7\] sky130_fd_sc_hd__inv_2
XTAP_TAPCELL_ROW_22_216 VGND VPWR sky130_fd_sc_hd__tapvpwrvgnd_1
XPHY_EDGE_ROW_41_Left_90 VGND VGND VPWR VPWR sky130_fd_sc_hd__decap_3
XFILLER_34_97 VGND VGND VPWR VPWR sky130_fd_sc_hd__decap_6
XFILLER_34_53 VGND VGND VPWR VPWR sky130_fd_sc_hd__decap_3
XFILLER_7_225 VPWR VGND VPWR VGND sky130_ef_sc_hd__decap_12
XFILLER_11_210 VPWR VGND VPWR VGND sky130_ef_sc_hd__decap_12
XFILLER_11_265 VPWR VGND VPWR VGND sky130_ef_sc_hd__decap_12
X_1020_ _0193_ _0395_ VGND VGND VPWR VPWR _0396_ sky130_fd_sc_hd__nand2_2
XFILLER_46_195 VGND VGND VPWR VPWR sky130_fd_sc_hd__fill_1
X_0804_ _0170_ _0178_ VGND VGND VPWR VPWR _0180_ sky130_fd_sc_hd__xnor2_1
X_0735_ net87 _0109_ VGND VGND VPWR VPWR _0111_ sky130_fd_sc_hd__xnor2_1
X_0666_ clk_divider.rollover_flag _0044_ net74 VGND VGND VPWR VPWR _0045_ sky130_fd_sc_hd__a21oi_1
XFILLER_37_195 VGND VGND VPWR VPWR sky130_fd_sc_hd__fill_1
X_1218_ _0012_ clk_divider.next_count\[5\] clk_divider.next_count\[6\] _0011_ VGND
+ VGND VPWR VPWR _0562_ sky130_fd_sc_hd__a2bb2o_1
X_1149_ clk_divider.count_out\[17\] clk_divider.count_out\[16\] _0495_ VGND VGND VPWR
+ VPWR _0504_ sky130_fd_sc_hd__and3_1
XFILLER_43_121 VGND VGND VPWR VPWR sky130_fd_sc_hd__decap_3
XTAP_TAPCELL_ROW_41_311 VGND VPWR sky130_fd_sc_hd__tapvpwrvgnd_1
XFILLER_3_261 VPWR VGND VPWR VGND sky130_ef_sc_hd__decap_12
X_1003_ _0012_ clk_divider.count_out\[5\] clk_divider.count_out\[4\] _0013_ VGND VGND
+ VPWR VPWR _0379_ sky130_fd_sc_hd__o22a_1
X_0718_ _0091_ _0093_ VGND VGND VPWR VPWR _0094_ sky130_fd_sc_hd__or2_1
XPHY_EDGE_ROW_6_Right_6 VGND VGND VPWR VPWR sky130_fd_sc_hd__decap_3
X_0649_ clk_divider.count_out\[12\] VGND VGND VPWR VPWR _0028_ sky130_fd_sc_hd__inv_2
XFILLER_25_165 VGND VGND VPWR VPWR sky130_fd_sc_hd__decap_3
XFILLER_40_146 VGND VGND VPWR VPWR sky130_fd_sc_hd__decap_8
XFILLER_15_99 VPWR VGND VPWR VGND sky130_ef_sc_hd__decap_12
Xoutput32 net32 VGND VGND VPWR VPWR out[21] sky130_fd_sc_hd__buf_2
Xoutput21 net21 VGND VGND VPWR VPWR out[11] sky130_fd_sc_hd__buf_2
Xoutput43 net43 VGND VGND VPWR VPWR out[31] sky130_fd_sc_hd__buf_2
XFILLER_0_253 VPWR VGND VPWR VGND sky130_ef_sc_hd__decap_12
XFILLER_31_87 VPWR VGND VPWR VGND sky130_ef_sc_hd__decap_12
XFILLER_31_113 VPWR VGND VPWR VGND sky130_ef_sc_hd__decap_12
XFILLER_22_168 VGND VGND VPWR VPWR sky130_fd_sc_hd__fill_1
XFILLER_45_249 VGND VGND VPWR VPWR sky130_fd_sc_hd__fill_1
XFILLER_42_53 VGND VGND VPWR VPWR sky130_fd_sc_hd__decap_3
XFILLER_9_106 VGND VGND VPWR VPWR sky130_fd_sc_hd__decap_6
XFILLER_13_113 VGND VGND VPWR VPWR sky130_fd_sc_hd__decap_4
XFILLER_26_76 VGND VGND VPWR VPWR sky130_fd_sc_hd__decap_3
XFILLER_3_69 VPWR VGND VPWR VGND sky130_ef_sc_hd__decap_12
XFILLER_12_190 VGND VGND VPWR VPWR sky130_fd_sc_hd__decap_6
XTAP_TAPCELL_ROW_14_174 VGND VPWR sky130_fd_sc_hd__tapvpwrvgnd_1
X_0983_ _0358_ VGND VGND VPWR VPWR _0359_ sky130_fd_sc_hd__inv_2
XFILLER_42_219 VPWR VGND VPWR VGND sky130_ef_sc_hd__decap_12
XTAP_TAPCELL_ROW_37_288 VGND VPWR sky130_fd_sc_hd__tapvpwrvgnd_1
XFILLER_6_109 VPWR VGND VPWR VGND sky130_ef_sc_hd__decap_12
XFILLER_10_138 VGND VGND VPWR VPWR sky130_fd_sc_hd__fill_2
XTAP_TAPCELL_ROW_5_131 VGND VPWR sky130_fd_sc_hd__tapvpwrvgnd_1
XFILLER_37_53 VGND VGND VPWR VPWR sky130_fd_sc_hd__decap_3
XFILLER_37_31 VPWR VGND VPWR VGND sky130_ef_sc_hd__decap_12
XFILLER_18_205 VGND VGND VPWR VPWR sky130_fd_sc_hd__decap_3
XTAP_TAPCELL_ROW_28_244 VGND VPWR sky130_fd_sc_hd__tapvpwrvgnd_1
X_1320_ clknet_2_0__leaf_clk clk_divider.next_count\[7\] net83 VGND VGND VPWR VPWR
+ clk_divider.count_out\[7\] sky130_fd_sc_hd__dfrtp_2
X_1182_ _0531_ VGND VGND VPWR VPWR clk_divider.next_count\[22\] sky130_fd_sc_hd__inv_2
XTAP_TAPCELL_ROW_19_200 VGND VPWR sky130_fd_sc_hd__tapvpwrvgnd_1
X_1251_ _0590_ _0591_ _0592_ _0594_ VGND VGND VPWR VPWR _0595_ sky130_fd_sc_hd__or4_1
XFILLER_24_208 VGND VGND VPWR VPWR sky130_fd_sc_hd__fill_1
X_0897_ _0250_ _0253_ _0272_ VGND VGND VPWR VPWR _0273_ sky130_fd_sc_hd__a21o_1
X_0966_ _0235_ _0341_ _0233_ VGND VGND VPWR VPWR _0342_ sky130_fd_sc_hd__a21oi_1
XFILLER_3_3 VPWR VGND VPWR VGND sky130_ef_sc_hd__decap_12
XFILLER_48_85 VPWR VGND VPWR VGND sky130_ef_sc_hd__decap_12
XFILLER_48_41 VPWR VGND VPWR VGND sky130_ef_sc_hd__decap_12
XFILLER_2_189 VGND VGND VPWR VPWR sky130_fd_sc_hd__decap_6
XFILLER_0_15 VPWR VGND VPWR VGND sky130_ef_sc_hd__decap_12
XFILLER_9_35 VGND VGND VPWR VPWR sky130_fd_sc_hd__decap_3
X_0751_ _0118_ _0126_ VGND VGND VPWR VPWR _0127_ sky130_fd_sc_hd__nand2_1
X_0820_ _0130_ _0132_ _0148_ VGND VGND VPWR VPWR _0196_ sky130_fd_sc_hd__nand3_2
X_1303_ net69 net72 net74 net67 VGND VGND VPWR VPWR _0620_ sky130_fd_sc_hd__and4b_1
X_0682_ net79 _0057_ VGND VGND VPWR VPWR _0058_ sky130_fd_sc_hd__xnor2_2
X_1165_ clk_divider.count_out\[20\] clk_divider.count_out\[19\] _0509_ VGND VGND VPWR
+ VPWR _0517_ sky130_fd_sc_hd__and3_1
X_1234_ net91 _0516_ _0519_ _0521_ _0326_ VGND VGND VPWR VPWR _0578_ sky130_fd_sc_hd__a311o_1
X_1096_ net88 _0456_ _0459_ _0460_ VGND VGND VPWR VPWR _0461_ sky130_fd_sc_hd__a31o_1
XTAP_TAPCELL_ROW_22_217 VGND VPWR sky130_fd_sc_hd__tapvpwrvgnd_1
X_0949_ _0019_ _0321_ _0322_ VGND VGND VPWR VPWR _0325_ sky130_fd_sc_hd__nand3_1
XFILLER_34_43 VGND VGND VPWR VPWR sky130_fd_sc_hd__fill_2
XFILLER_34_32 VGND VGND VPWR VPWR sky130_fd_sc_hd__decap_8
XFILLER_7_237 VPWR VGND VPWR VGND sky130_ef_sc_hd__decap_12
XFILLER_7_204 VPWR VGND VPWR VGND sky130_ef_sc_hd__decap_12
XFILLER_11_222 VGND VGND VPWR VPWR sky130_fd_sc_hd__fill_2
XFILLER_11_233 VGND VGND VPWR VPWR sky130_fd_sc_hd__fill_1
XFILLER_11_277 VGND VGND VPWR VPWR sky130_fd_sc_hd__decap_3
XFILLER_46_141 VPWR VGND VPWR VGND sky130_ef_sc_hd__decap_12
XFILLER_46_130 VGND VGND VPWR VPWR sky130_fd_sc_hd__decap_8
XFILLER_38_108 VPWR VGND VPWR VGND sky130_ef_sc_hd__decap_12
X_0665_ count\[5\] _0041_ VGND VGND VPWR VPWR _0044_ sky130_fd_sc_hd__nand2_1
X_0803_ _0178_ _0170_ VGND VGND VPWR VPWR _0179_ sky130_fd_sc_hd__and2b_1
X_0734_ net87 _0109_ VGND VGND VPWR VPWR _0110_ sky130_fd_sc_hd__nand2_1
XFILLER_29_108 VGND VGND VPWR VPWR sky130_fd_sc_hd__decap_4
X_1217_ _0391_ clk_divider.next_count\[13\] clk_divider.next_count\[11\] _0367_ VGND
+ VGND VPWR VPWR _0561_ sky130_fd_sc_hd__a2bb2o_1
X_1079_ clk_divider.count_out\[5\] clk_divider.count_out\[4\] _0435_ VGND VGND VPWR
+ VPWR _0446_ sky130_fd_sc_hd__and3_1
X_1148_ _0335_ _0408_ net54 _0023_ VGND VGND VPWR VPWR _0503_ sky130_fd_sc_hd__a211o_1
XFILLER_20_67 VGND VGND VPWR VPWR sky130_fd_sc_hd__decap_8
XFILLER_28_141 VGND VGND VPWR VPWR sky130_fd_sc_hd__decap_6
XTAP_TAPCELL_ROW_41_312 VGND VPWR sky130_fd_sc_hd__tapvpwrvgnd_1
XFILLER_3_273 VGND VGND VPWR VPWR sky130_fd_sc_hd__decap_6
X_1002_ clk_divider.count_out\[9\] _0373_ _0377_ clk_divider.count_out\[8\] VGND VGND
+ VPWR VPWR _0378_ sky130_fd_sc_hd__a22o_1
X_0717_ _0081_ _0083_ _0090_ VGND VGND VPWR VPWR _0093_ sky130_fd_sc_hd__and3_1
X_0648_ clk_divider.count_out\[13\] VGND VGND VPWR VPWR _0027_ sky130_fd_sc_hd__inv_2
XFILLER_40_103 VPWR VGND VPWR VGND sky130_ef_sc_hd__decap_12
XFILLER_25_111 VGND VGND VPWR VPWR sky130_fd_sc_hd__fill_1
XFILLER_25_133 VPWR VGND VPWR VGND sky130_ef_sc_hd__decap_12
XFILLER_25_177 VGND VGND VPWR VPWR sky130_fd_sc_hd__decap_3
XFILLER_31_22 VGND VGND VPWR VPWR sky130_fd_sc_hd__fill_2
XFILLER_31_55 VGND VGND VPWR VPWR sky130_fd_sc_hd__fill_1
XFILLER_31_99 VPWR VGND VPWR VGND sky130_ef_sc_hd__decap_12
XFILLER_48_225 VGND VGND VPWR VPWR sky130_fd_sc_hd__fill_2
Xoutput33 net33 VGND VGND VPWR VPWR out[22] sky130_fd_sc_hd__buf_2
XFILLER_48_203 VGND VGND VPWR VPWR sky130_fd_sc_hd__decap_3
Xoutput22 net22 VGND VGND VPWR VPWR out[12] sky130_fd_sc_hd__buf_2
Xoutput44 net44 VGND VGND VPWR VPWR out[32] sky130_fd_sc_hd__buf_2
XFILLER_0_221 VGND VGND VPWR VPWR sky130_fd_sc_hd__decap_3
XFILLER_0_265 VPWR VGND VPWR VGND sky130_ef_sc_hd__decap_12
XFILLER_31_125 VGND VGND VPWR VPWR sky130_fd_sc_hd__decap_6
XFILLER_31_169 VPWR VGND VPWR VGND sky130_ef_sc_hd__decap_12