*SPEF "ieee 1481-1999"
*DESIGN "fpgacell"
*DATE "20:02:22 Sunday July 13, 2025"
*VENDOR "The OpenROAD Project"
*PROGRAM "OpenROAD"
*VERSION "edf00dff99f6c40d67a30c0e22a8191c5d2ed9d6"
*DESIGN_FLOW "NAME_SCOPE LOCAL" "PIN_CAP NONE"
*DIVIDER /
*DELIMITER :
*BUS_DELIMITER []
*T_UNIT 1 NS
*C_UNIT 1 PF
*R_UNIT 1 OHM
*L_UNIT 1 HENRY

*NAME_MAP
*1 CBeast_in[0]
*2 CBeast_in[10]
*3 CBeast_in[11]
*4 CBeast_in[12]
*5 CBeast_in[13]
*6 CBeast_in[14]
*7 CBeast_in[15]
*8 CBeast_in[1]
*9 CBeast_in[2]
*10 CBeast_in[3]
*11 CBeast_in[4]
*12 CBeast_in[5]
*13 CBeast_in[6]
*14 CBeast_in[7]
*15 CBeast_in[8]
*16 CBeast_in[9]
*17 CBeast_out[0]
*18 CBeast_out[10]
*19 CBeast_out[11]
*20 CBeast_out[12]
*21 CBeast_out[13]
*22 CBeast_out[14]
*23 CBeast_out[15]
*24 CBeast_out[1]
*25 CBeast_out[2]
*26 CBeast_out[3]
*27 CBeast_out[4]
*28 CBeast_out[5]
*29 CBeast_out[6]
*30 CBeast_out[7]
*31 CBeast_out[8]
*32 CBeast_out[9]
*33 CBnorth_in[0]
*34 CBnorth_in[10]
*35 CBnorth_in[11]
*36 CBnorth_in[12]
*37 CBnorth_in[13]
*38 CBnorth_in[14]
*39 CBnorth_in[15]
*40 CBnorth_in[1]
*41 CBnorth_in[2]
*42 CBnorth_in[3]
*43 CBnorth_in[4]
*44 CBnorth_in[5]
*45 CBnorth_in[6]
*46 CBnorth_in[7]
*47 CBnorth_in[8]
*48 CBnorth_in[9]
*49 CBnorth_out[0]
*50 CBnorth_out[10]
*51 CBnorth_out[11]
*52 CBnorth_out[12]
*53 CBnorth_out[13]
*54 CBnorth_out[14]
*55 CBnorth_out[15]
*56 CBnorth_out[1]
*57 CBnorth_out[2]
*58 CBnorth_out[3]
*59 CBnorth_out[4]
*60 CBnorth_out[5]
*61 CBnorth_out[6]
*62 CBnorth_out[7]
*63 CBnorth_out[8]
*64 CBnorth_out[9]
*65 SBsouth_in[0]
*66 SBsouth_in[10]
*67 SBsouth_in[11]
*68 SBsouth_in[12]
*69 SBsouth_in[13]
*70 SBsouth_in[14]
*71 SBsouth_in[15]
*72 SBsouth_in[1]
*73 SBsouth_in[2]
*74 SBsouth_in[3]
*75 SBsouth_in[4]
*76 SBsouth_in[5]
*77 SBsouth_in[6]
*78 SBsouth_in[7]
*79 SBsouth_in[8]
*80 SBsouth_in[9]
*81 SBsouth_out[0]
*82 SBsouth_out[10]
*83 SBsouth_out[11]
*84 SBsouth_out[12]
*85 SBsouth_out[13]
*86 SBsouth_out[14]
*87 SBsouth_out[15]
*88 SBsouth_out[1]
*89 SBsouth_out[2]
*90 SBsouth_out[3]
*91 SBsouth_out[4]
*92 SBsouth_out[5]
*93 SBsouth_out[6]
*94 SBsouth_out[7]
*95 SBsouth_out[8]
*96 SBsouth_out[9]
*97 SBwest_in[0]
*98 SBwest_in[10]
*99 SBwest_in[11]
*100 SBwest_in[12]
*101 SBwest_in[13]
*102 SBwest_in[14]
*103 SBwest_in[15]
*104 SBwest_in[1]
*105 SBwest_in[2]
*106 SBwest_in[3]
*107 SBwest_in[4]
*108 SBwest_in[5]
*109 SBwest_in[6]
*110 SBwest_in[7]
*111 SBwest_in[8]
*112 SBwest_in[9]
*113 SBwest_out[0]
*114 SBwest_out[10]
*115 SBwest_out[11]
*116 SBwest_out[12]
*117 SBwest_out[13]
*118 SBwest_out[14]
*119 SBwest_out[15]
*120 SBwest_out[1]
*121 SBwest_out[2]
*122 SBwest_out[3]
*123 SBwest_out[4]
*124 SBwest_out[5]
*125 SBwest_out[6]
*126 SBwest_out[7]
*127 SBwest_out[8]
*128 SBwest_out[9]
*129 clk
*130 config_data_in
*131 config_data_out
*132 config_en
*133 en
*134 le_clk
*135 le_en
*136 le_nrst
*137 nrst
*140 CB_0\.config_dataA\[0\]
*141 CB_0\.config_dataA\[10\]
*142 CB_0\.config_dataA\[11\]
*143 CB_0\.config_dataA\[12\]
*144 CB_0\.config_dataA\[13\]
*145 CB_0\.config_dataA\[14\]
*146 CB_0\.config_dataA\[15\]
*147 CB_0\.config_dataA\[16\]
*148 CB_0\.config_dataA\[17\]
*149 CB_0\.config_dataA\[18\]
*150 CB_0\.config_dataA\[19\]
*151 CB_0\.config_dataA\[1\]
*152 CB_0\.config_dataA\[20\]
*153 CB_0\.config_dataA\[21\]
*154 CB_0\.config_dataA\[22\]
*155 CB_0\.config_dataA\[23\]
*156 CB_0\.config_dataA\[24\]
*157 CB_0\.config_dataA\[2\]
*158 CB_0\.config_dataA\[3\]
*159 CB_0\.config_dataA\[4\]
*160 CB_0\.config_dataA\[5\]
*161 CB_0\.config_dataA\[6\]
*162 CB_0\.config_dataA\[7\]
*163 CB_0\.config_dataA\[8\]
*164 CB_0\.config_dataA\[9\]
*165 CB_0\.config_dataB\[0\]
*166 CB_0\.config_dataB\[10\]
*167 CB_0\.config_dataB\[11\]
*168 CB_0\.config_dataB\[12\]
*169 CB_0\.config_dataB\[13\]
*170 CB_0\.config_dataB\[14\]
*171 CB_0\.config_dataB\[15\]
*172 CB_0\.config_dataB\[16\]
*173 CB_0\.config_dataB\[17\]
*174 CB_0\.config_dataB\[18\]
*175 CB_0\.config_dataB\[19\]
*176 CB_0\.config_dataB\[1\]
*177 CB_0\.config_dataB\[20\]
*178 CB_0\.config_dataB\[21\]
*179 CB_0\.config_dataB\[22\]
*180 CB_0\.config_dataB\[23\]
*181 CB_0\.config_dataB\[24\]
*182 CB_0\.config_dataB\[2\]
*183 CB_0\.config_dataB\[3\]
*184 CB_0\.config_dataB\[4\]
*185 CB_0\.config_dataB\[5\]
*186 CB_0\.config_dataB\[6\]
*187 CB_0\.config_dataB\[7\]
*188 CB_0\.config_dataB\[8\]
*189 CB_0\.config_dataB\[9\]
*190 CB_0\.config_data_inA
*191 CB_0\.le_outA
*192 CB_0\.le_outB
*193 CB_1\.config_dataA\[0\]
*194 CB_1\.config_dataA\[10\]
*195 CB_1\.config_dataA\[11\]
*196 CB_1\.config_dataA\[12\]
*197 CB_1\.config_dataA\[13\]
*198 CB_1\.config_dataA\[14\]
*199 CB_1\.config_dataA\[15\]
*200 CB_1\.config_dataA\[16\]
*201 CB_1\.config_dataA\[17\]
*202 CB_1\.config_dataA\[18\]
*203 CB_1\.config_dataA\[19\]
*204 CB_1\.config_dataA\[1\]
*205 CB_1\.config_dataA\[20\]
*206 CB_1\.config_dataA\[21\]
*207 CB_1\.config_dataA\[22\]
*208 CB_1\.config_dataA\[23\]
*209 CB_1\.config_dataA\[24\]
*210 CB_1\.config_dataA\[2\]
*211 CB_1\.config_dataA\[3\]
*212 CB_1\.config_dataA\[4\]
*213 CB_1\.config_dataA\[5\]
*214 CB_1\.config_dataA\[6\]
*215 CB_1\.config_dataA\[7\]
*216 CB_1\.config_dataA\[8\]
*217 CB_1\.config_dataA\[9\]
*218 CB_1\.config_dataB\[0\]
*219 CB_1\.config_dataB\[10\]
*220 CB_1\.config_dataB\[11\]
*221 CB_1\.config_dataB\[12\]
*222 CB_1\.config_dataB\[13\]
*223 CB_1\.config_dataB\[14\]
*224 CB_1\.config_dataB\[15\]
*225 CB_1\.config_dataB\[16\]
*226 CB_1\.config_dataB\[17\]
*227 CB_1\.config_dataB\[18\]
*228 CB_1\.config_dataB\[19\]
*229 CB_1\.config_dataB\[1\]
*230 CB_1\.config_dataB\[20\]
*231 CB_1\.config_dataB\[21\]
*232 CB_1\.config_dataB\[22\]
*233 CB_1\.config_dataB\[23\]
*234 CB_1\.config_dataB\[24\]
*235 CB_1\.config_dataB\[2\]
*236 CB_1\.config_dataB\[3\]
*237 CB_1\.config_dataB\[4\]
*238 CB_1\.config_dataB\[5\]
*239 CB_1\.config_dataB\[6\]
*240 CB_1\.config_dataB\[7\]
*241 CB_1\.config_dataB\[8\]
*242 CB_1\.config_dataB\[9\]
*243 CB_1\.le_outA
*244 CB_1\.le_outB
*245 LEI0\.config_data\[0\]
*246 LEI0\.config_data\[10\]
*247 LEI0\.config_data\[11\]
*248 LEI0\.config_data\[12\]
*249 LEI0\.config_data\[13\]
*250 LEI0\.config_data\[14\]
*251 LEI0\.config_data\[15\]
*252 LEI0\.config_data\[16\]
*253 LEI0\.config_data\[17\]
*254 LEI0\.config_data\[18\]
*255 LEI0\.config_data\[19\]
*256 LEI0\.config_data\[1\]
*257 LEI0\.config_data\[20\]
*258 LEI0\.config_data\[21\]
*259 LEI0\.config_data\[22\]
*260 LEI0\.config_data\[23\]
*261 LEI0\.config_data\[24\]
*262 LEI0\.config_data\[25\]
*263 LEI0\.config_data\[26\]
*264 LEI0\.config_data\[27\]
*265 LEI0\.config_data\[28\]
*266 LEI0\.config_data\[29\]
*267 LEI0\.config_data\[2\]
*268 LEI0\.config_data\[30\]
*269 LEI0\.config_data\[31\]
*270 LEI0\.config_data\[32\]
*271 LEI0\.config_data\[33\]
*272 LEI0\.config_data\[34\]
*273 LEI0\.config_data\[35\]
*274 LEI0\.config_data\[36\]
*275 LEI0\.config_data\[37\]
*276 LEI0\.config_data\[38\]
*277 LEI0\.config_data\[39\]
*278 LEI0\.config_data\[3\]
*279 LEI0\.config_data\[40\]
*280 LEI0\.config_data\[41\]
*281 LEI0\.config_data\[42\]
*282 LEI0\.config_data\[43\]
*283 LEI0\.config_data\[44\]
*284 LEI0\.config_data\[45\]
*285 LEI0\.config_data\[46\]
*286 LEI0\.config_data\[4\]
*287 LEI0\.config_data\[5\]
*288 LEI0\.config_data\[6\]
*289 LEI0\.config_data\[7\]
*290 LEI0\.config_data\[8\]
*291 LEI0\.config_data\[9\]
*292 LEI0\.config_data_in
*293 LE_0A\.config_data\[0\]
*294 LE_0A\.config_data\[10\]
*295 LE_0A\.config_data\[11\]
*296 LE_0A\.config_data\[12\]
*297 LE_0A\.config_data\[13\]
*298 LE_0A\.config_data\[14\]
*299 LE_0A\.config_data\[15\]
*300 LE_0A\.config_data\[16\]
*301 LE_0A\.config_data\[1\]
*302 LE_0A\.config_data\[2\]
*303 LE_0A\.config_data\[3\]
*304 LE_0A\.config_data\[4\]
*305 LE_0A\.config_data\[5\]
*306 LE_0A\.config_data\[6\]
*307 LE_0A\.config_data\[7\]
*308 LE_0A\.config_data\[8\]
*309 LE_0A\.config_data\[9\]
*310 LE_0A\.dff_out
*311 LE_0B\.config_data\[0\]
*312 LE_0B\.config_data\[10\]
*313 LE_0B\.config_data\[11\]
*314 LE_0B\.config_data\[12\]
*315 LE_0B\.config_data\[13\]
*316 LE_0B\.config_data\[14\]
*317 LE_0B\.config_data\[15\]
*318 LE_0B\.config_data\[16\]
*319 LE_0B\.config_data\[1\]
*320 LE_0B\.config_data\[2\]
*321 LE_0B\.config_data\[3\]
*322 LE_0B\.config_data\[4\]
*323 LE_0B\.config_data\[5\]
*324 LE_0B\.config_data\[6\]
*325 LE_0B\.config_data\[7\]
*326 LE_0B\.config_data\[8\]
*327 LE_0B\.config_data\[9\]
*328 LE_0B\.config_data_in
*329 LE_0B\.dff_out
*330 LE_1A\.config_data\[0\]
*331 LE_1A\.config_data\[10\]
*332 LE_1A\.config_data\[11\]
*333 LE_1A\.config_data\[12\]
*334 LE_1A\.config_data\[13\]
*335 LE_1A\.config_data\[14\]
*336 LE_1A\.config_data\[15\]
*337 LE_1A\.config_data\[1\]
*338 LE_1A\.config_data\[2\]
*339 LE_1A\.config_data\[3\]
*340 LE_1A\.config_data\[4\]
*341 LE_1A\.config_data\[5\]
*342 LE_1A\.config_data\[6\]
*343 LE_1A\.config_data\[7\]
*344 LE_1A\.config_data\[8\]
*345 LE_1A\.config_data\[9\]
*346 LE_1A\.dff_out
*347 LE_1B\.config_data\[0\]
*348 LE_1B\.config_data\[10\]
*349 LE_1B\.config_data\[11\]
*350 LE_1B\.config_data\[12\]
*351 LE_1B\.config_data\[13\]
*352 LE_1B\.config_data\[14\]
*353 LE_1B\.config_data\[15\]
*354 LE_1B\.config_data\[1\]
*355 LE_1B\.config_data\[2\]
*356 LE_1B\.config_data\[3\]
*357 LE_1B\.config_data\[4\]
*358 LE_1B\.config_data\[5\]
*359 LE_1B\.config_data\[6\]
*360 LE_1B\.config_data\[7\]
*361 LE_1B\.config_data\[8\]
*362 LE_1B\.config_data\[9\]
*363 LE_1B\.dff_out
*364 SB0\.route_sel\[0\]
*365 SB0\.route_sel\[100\]
*366 SB0\.route_sel\[101\]
*367 SB0\.route_sel\[102\]
*368 SB0\.route_sel\[103\]
*369 SB0\.route_sel\[104\]
*370 SB0\.route_sel\[105\]
*371 SB0\.route_sel\[106\]
*372 SB0\.route_sel\[107\]
*373 SB0\.route_sel\[108\]
*374 SB0\.route_sel\[109\]
*375 SB0\.route_sel\[10\]
*376 SB0\.route_sel\[110\]
*377 SB0\.route_sel\[111\]
*378 SB0\.route_sel\[112\]
*379 SB0\.route_sel\[113\]
*380 SB0\.route_sel\[114\]
*381 SB0\.route_sel\[115\]
*382 SB0\.route_sel\[116\]
*383 SB0\.route_sel\[117\]
*384 SB0\.route_sel\[118\]
*385 SB0\.route_sel\[119\]
*386 SB0\.route_sel\[11\]
*387 SB0\.route_sel\[120\]
*388 SB0\.route_sel\[121\]
*389 SB0\.route_sel\[122\]
*390 SB0\.route_sel\[123\]
*391 SB0\.route_sel\[124\]
*392 SB0\.route_sel\[125\]
*393 SB0\.route_sel\[126\]
*394 SB0\.route_sel\[12\]
*395 SB0\.route_sel\[13\]
*396 SB0\.route_sel\[14\]
*397 SB0\.route_sel\[15\]
*398 SB0\.route_sel\[16\]
*399 SB0\.route_sel\[17\]
*400 SB0\.route_sel\[18\]
*401 SB0\.route_sel\[19\]
*402 SB0\.route_sel\[1\]
*403 SB0\.route_sel\[20\]
*404 SB0\.route_sel\[21\]
*405 SB0\.route_sel\[22\]
*406 SB0\.route_sel\[23\]
*407 SB0\.route_sel\[24\]
*408 SB0\.route_sel\[25\]
*409 SB0\.route_sel\[26\]
*410 SB0\.route_sel\[27\]
*411 SB0\.route_sel\[28\]
*412 SB0\.route_sel\[29\]
*413 SB0\.route_sel\[2\]
*414 SB0\.route_sel\[30\]
*415 SB0\.route_sel\[31\]
*416 SB0\.route_sel\[32\]
*417 SB0\.route_sel\[33\]
*418 SB0\.route_sel\[34\]
*419 SB0\.route_sel\[35\]
*420 SB0\.route_sel\[36\]
*421 SB0\.route_sel\[37\]
*422 SB0\.route_sel\[38\]
*423 SB0\.route_sel\[39\]
*424 SB0\.route_sel\[3\]
*425 SB0\.route_sel\[40\]
*426 SB0\.route_sel\[41\]
*427 SB0\.route_sel\[42\]
*428 SB0\.route_sel\[43\]
*429 SB0\.route_sel\[44\]
*430 SB0\.route_sel\[45\]
*431 SB0\.route_sel\[46\]
*432 SB0\.route_sel\[47\]
*433 SB0\.route_sel\[48\]
*434 SB0\.route_sel\[49\]
*435 SB0\.route_sel\[4\]
*436 SB0\.route_sel\[50\]
*437 SB0\.route_sel\[51\]
*438 SB0\.route_sel\[52\]
*439 SB0\.route_sel\[53\]
*440 SB0\.route_sel\[54\]
*441 SB0\.route_sel\[55\]
*442 SB0\.route_sel\[56\]
*443 SB0\.route_sel\[57\]
*444 SB0\.route_sel\[58\]
*445 SB0\.route_sel\[59\]
*446 SB0\.route_sel\[5\]
*447 SB0\.route_sel\[60\]
*448 SB0\.route_sel\[61\]
*449 SB0\.route_sel\[62\]
*450 SB0\.route_sel\[63\]
*451 SB0\.route_sel\[64\]
*452 SB0\.route_sel\[65\]
*453 SB0\.route_sel\[66\]
*454 SB0\.route_sel\[67\]
*455 SB0\.route_sel\[68\]
*456 SB0\.route_sel\[69\]
*457 SB0\.route_sel\[6\]
*458 SB0\.route_sel\[70\]
*459 SB0\.route_sel\[71\]
*460 SB0\.route_sel\[72\]
*461 SB0\.route_sel\[73\]
*462 SB0\.route_sel\[74\]
*463 SB0\.route_sel\[75\]
*464 SB0\.route_sel\[76\]
*465 SB0\.route_sel\[77\]
*466 SB0\.route_sel\[78\]
*467 SB0\.route_sel\[79\]
*468 SB0\.route_sel\[7\]
*469 SB0\.route_sel\[80\]
*470 SB0\.route_sel\[81\]
*471 SB0\.route_sel\[82\]
*472 SB0\.route_sel\[83\]
*473 SB0\.route_sel\[84\]
*474 SB0\.route_sel\[85\]
*475 SB0\.route_sel\[86\]
*476 SB0\.route_sel\[87\]
*477 SB0\.route_sel\[88\]
*478 SB0\.route_sel\[89\]
*479 SB0\.route_sel\[8\]
*480 SB0\.route_sel\[90\]
*481 SB0\.route_sel\[91\]
*482 SB0\.route_sel\[92\]
*483 SB0\.route_sel\[93\]
*484 SB0\.route_sel\[94\]
*485 SB0\.route_sel\[95\]
*486 SB0\.route_sel\[96\]
*487 SB0\.route_sel\[97\]
*488 SB0\.route_sel\[98\]
*489 SB0\.route_sel\[99\]
*490 SB0\.route_sel\[9\]
*491 _0000_
*492 _0001_
*493 _0002_
*494 _0003_
*495 _0004_
*496 _0005_
*497 _0006_
*498 _0007_
*499 _0008_
*500 _0009_
*501 _0010_
*502 _0011_
*503 _0012_
*504 _0013_
*505 _0014_
*506 _0015_
*507 _0016_
*508 _0017_
*509 _0018_
*510 _0019_
*511 _0020_
*512 _0021_
*513 _0022_
*514 _0023_
*515 _0024_
*516 _0025_
*517 _0026_
*518 _0027_
*519 _0028_
*520 _0029_
*521 _0030_
*522 _0031_
*523 _0032_
*524 _0033_
*525 _0034_
*526 _0035_
*527 _0036_
*528 _0037_
*529 _0038_
*530 _0039_
*531 _0040_
*532 _0041_
*533 _0042_
*534 _0043_
*535 _0044_
*536 _0045_
*537 _0046_
*538 _0047_
*539 _0048_
*540 _0049_
*541 _0050_
*542 _0051_
*543 _0052_
*544 _0053_
*545 _0054_
*546 _0055_
*547 _0056_
*548 _0057_
*549 _0058_
*550 _0059_
*551 _0060_
*552 _0061_
*553 _0062_
*554 _0063_
*555 _0064_
*556 _0065_
*557 _0066_
*558 _0067_
*559 _0068_
*560 _0069_
*561 _0070_
*562 _0071_
*563 _0072_
*564 _0073_
*565 _0074_
*566 _0075_
*567 _0076_
*568 _0077_
*569 _0078_
*570 _0079_
*571 _0080_
*572 _0081_
*573 _0082_
*574 _0083_
*575 _0084_
*576 _0085_
*577 _0086_
*578 _0087_
*579 _0088_
*580 _0089_
*581 _0090_
*582 _0091_
*583 _0092_
*584 _0093_
*585 _0094_
*586 _0095_
*587 _0096_
*588 _0097_
*589 _0098_
*590 _0099_
*591 _0100_
*592 _0101_
*593 _0102_
*594 _0103_
*595 _0104_
*596 _0105_
*597 _0106_
*598 _0107_
*599 _0108_
*600 _0109_
*601 _0110_
*602 _0111_
*603 _0112_
*604 _0113_
*605 _0114_
*606 _0115_
*607 _0116_
*608 _0117_
*609 _0118_
*610 _0119_
*611 _0120_
*612 _0121_
*613 _0122_
*614 _0123_
*615 _0124_
*616 _0125_
*617 _0126_
*618 _0127_
*619 _0128_
*620 _0129_
*621 _0130_
*622 _0131_
*623 _0132_
*624 _0133_
*625 _0134_
*626 _0135_
*627 _0136_
*628 _0137_
*629 _0138_
*630 _0139_
*631 _0140_
*632 _0141_
*633 _0142_
*634 _0143_
*635 _0144_
*636 _0145_
*637 _0146_
*638 _0147_
*639 _0148_
*640 _0149_
*641 _0150_
*642 _0151_
*643 _0152_
*644 _0153_
*645 _0154_
*646 _0155_
*647 _0156_
*648 _0157_
*649 _0158_
*650 _0159_
*651 _0160_
*652 _0161_
*653 _0162_
*654 _0163_
*655 _0164_
*656 _0165_
*657 _0166_
*658 _0167_
*659 _0168_
*660 _0169_
*661 _0170_
*662 _0171_
*663 _0172_
*664 _0173_
*665 _0174_
*666 _0175_
*667 _0176_
*668 _0177_
*669 _0178_
*670 _0179_
*671 _0180_
*672 _0181_
*673 _0182_
*674 _0183_
*675 _0184_
*676 _0185_
*677 _0186_
*678 _0187_
*679 _0188_
*680 _0189_
*681 _0190_
*682 _0191_
*683 _0192_
*684 _0193_
*685 _0194_
*686 _0195_
*687 _0196_
*688 _0197_
*689 _0198_
*690 _0199_
*691 _0200_
*692 _0201_
*693 _0202_
*694 _0203_
*695 _0204_
*696 _0205_
*697 _0206_
*698 _0207_
*699 _0208_
*700 _0209_
*701 _0210_
*702 _0211_
*703 _0212_
*704 _0213_
*705 _0214_
*706 _0215_
*707 _0216_
*708 _0217_
*709 _0218_
*710 _0219_
*711 _0220_
*712 _0221_
*713 _0222_
*714 _0223_
*715 _0224_
*716 _0225_
*717 _0226_
*718 _0227_
*719 _0228_
*720 _0229_
*721 _0230_
*722 _0231_
*723 _0232_
*724 _0233_
*725 _0234_
*726 _0235_
*727 _0236_
*728 _0237_
*729 _0238_
*730 _0239_
*731 _0240_
*732 _0241_
*733 _0242_
*734 _0243_
*735 _0244_
*736 _0245_
*737 _0246_
*738 _0247_
*739 _0248_
*740 _0249_
*741 _0250_
*742 _0251_
*743 _0252_
*744 _0253_
*745 _0254_
*746 _0255_
*747 _0256_
*748 _0257_
*749 _0258_
*750 _0259_
*751 _0260_
*752 _0261_
*753 _0262_
*754 _0263_
*755 _0264_
*756 _0265_
*757 _0266_
*758 _0267_
*759 _0268_
*760 _0269_
*761 _0270_
*762 _0271_
*763 _0272_
*764 _0273_
*765 _0274_
*766 _0275_
*767 _0276_
*768 _0277_
*769 _0278_
*770 _0279_
*771 _0280_
*772 _0281_
*773 _0282_
*774 _0283_
*775 _0284_
*776 _0285_
*777 _0286_
*778 _0287_
*779 _0288_
*780 _0289_
*781 _0290_
*782 _0291_
*783 _0292_
*784 _0293_
*785 _0294_
*786 _0295_
*787 _0296_
*788 _0297_
*789 _0298_
*790 _0299_
*791 _0300_
*792 _0301_
*793 _0302_
*794 _0303_
*795 _0304_
*796 _0305_
*797 _0306_
*798 _0307_
*799 _0308_
*800 _0309_
*801 _0310_
*802 _0311_
*803 _0312_
*804 _0313_
*805 _0314_
*806 _0315_
*807 _0316_
*808 _0317_
*809 _0318_
*810 _0319_
*811 _0320_
*812 _0321_
*813 _0322_
*814 _0323_
*815 _0324_
*816 _0325_
*817 _0326_
*818 _0327_
*819 _0328_
*820 _0329_
*821 _0330_
*822 _0331_
*823 _0332_
*824 _0333_
*825 _0334_
*826 _0335_
*827 _0336_
*828 _0337_
*829 _0338_
*830 _0339_
*831 _0340_
*832 _0341_
*833 _0342_
*834 _0343_
*835 _0344_
*836 _0345_
*837 _0346_
*838 _0347_
*839 _0348_
*840 _0349_
*841 _0350_
*842 _0351_
*843 _0352_
*844 _0353_
*845 _0354_
*846 _0355_
*847 _0356_
*848 _0357_
*849 _0358_
*850 _0359_
*851 _0360_
*852 _0361_
*853 _0362_
*854 _0363_
*855 _0364_
*856 _0365_
*857 _0366_
*858 _0367_
*859 _0368_
*860 _0369_
*861 _0370_
*862 _0371_
*863 _0372_
*864 _0373_
*865 _0374_
*866 _0375_
*867 _0376_
*868 _0377_
*869 _0378_
*870 _0379_
*871 _0380_
*872 _0381_
*873 _0382_
*874 _0383_
*875 _0384_
*876 _0385_
*877 _0386_
*878 _0387_
*879 _0388_
*880 _0389_
*881 _0390_
*882 _0391_
*883 _0392_
*884 _0393_
*885 _0394_
*886 _0395_
*887 _0396_
*888 _0397_
*889 _0398_
*890 _0399_
*891 _0400_
*892 _0401_
*893 _0402_
*894 _0403_
*895 _0404_
*896 _0405_
*897 _0406_
*898 _0407_
*899 _0408_
*900 _0409_
*901 _0410_
*902 _0411_
*903 _0412_
*904 _0413_
*905 _0414_
*906 _0415_
*907 _0416_
*908 _0417_
*909 _0418_
*910 _0419_
*911 _0420_
*912 _0421_
*913 _0422_
*914 _0423_
*915 _0424_
*916 _0425_
*917 _0426_
*918 _0427_
*919 _0428_
*920 _0429_
*921 _0430_
*922 _0431_
*923 _0432_
*924 _0433_
*925 _0434_
*926 _0435_
*927 _0436_
*928 _0437_
*929 _0438_
*930 _0439_
*931 _0440_
*932 _0441_
*933 _0442_
*934 _0443_
*935 _0444_
*936 _0445_
*937 _0446_
*938 _0447_
*939 _0448_
*940 _0449_
*941 _0450_
*942 _0451_
*943 _0452_
*944 _0453_
*945 _0454_
*946 _0455_
*947 _0456_
*948 _0457_
*949 _0458_
*950 _0459_
*951 _0460_
*952 _0461_
*953 _0462_
*954 _0463_
*955 _0464_
*956 _0465_
*957 _0466_
*958 _0467_
*959 _0468_
*960 _0469_
*961 _0470_
*962 _0471_
*963 _0472_
*964 _0473_
*965 _0474_
*966 _0475_
*967 _0476_
*968 _0477_
*969 _0478_
*970 _0479_
*971 _0480_
*972 _0481_
*973 _0482_
*974 _0483_
*975 _0484_
*976 _0485_
*977 _0486_
*978 _0487_
*979 _0488_
*980 _0489_
*981 _0490_
*982 _0491_
*983 _0492_
*984 _0493_
*985 _0494_
*986 _0495_
*987 _0496_
*988 _0497_
*989 _0498_
*990 _0499_
*991 _0500_
*992 _0501_
*993 _0502_
*994 _0503_
*995 _0504_
*996 _0505_
*997 _0506_
*998 _0507_
*999 _0508_
*1000 _0509_
*1001 _0510_
*1002 _0511_
*1003 _0512_
*1004 _0513_
*1005 _0514_
*1006 _0515_
*1007 _0516_
*1008 _0517_
*1009 _0518_
*1010 _0519_
*1011 _0520_
*1012 _0521_
*1013 _0522_
*1014 _0523_
*1015 _0524_
*1016 _0525_
*1017 _0526_
*1018 _0527_
*1019 _0528_
*1020 _0529_
*1021 _0530_
*1022 _0531_
*1023 _0532_
*1024 _0533_
*1025 _0534_
*1026 _0535_
*1027 _0536_
*1028 _0537_
*1029 _0538_
*1030 _0539_
*1031 _0540_
*1032 _0541_
*1033 _0542_
*1034 _0543_
*1035 _0544_
*1036 _0545_
*1037 _0546_
*1038 _0547_
*1039 _0548_
*1040 _0549_
*1041 _0550_
*1042 _0551_
*1043 _0552_
*1044 _0553_
*1045 _0554_
*1046 _0555_
*1047 _0556_
*1048 _0557_
*1049 _0558_
*1050 _0559_
*1051 _0560_
*1052 _0561_
*1053 _0562_
*1054 _0563_
*1055 _0564_
*1056 _0565_
*1057 _0566_
*1058 _0567_
*1059 _0568_
*1060 _0569_
*1061 _0570_
*1062 _0571_
*1063 _0572_
*1064 _0573_
*1065 _0574_
*1066 _0575_
*1067 _0576_
*1068 _0577_
*1069 _0578_
*1070 _0579_
*1071 _0580_
*1072 _0581_
*1073 _0582_
*1074 _0583_
*1075 _0584_
*1076 _0585_
*1077 _0586_
*1078 _0587_
*1079 _0588_
*1080 _0589_
*1081 _0590_
*1082 _0591_
*1083 _0592_
*1084 _0593_
*1085 _0594_
*1086 _0595_
*1087 _0596_
*1088 _0597_
*1089 _0598_
*1090 _0599_
*1091 _0600_
*1092 _0601_
*1093 _0602_
*1094 _0603_
*1095 _0604_
*1096 _0605_
*1097 _0606_
*1098 _0607_
*1099 _0608_
*1100 _0609_
*1101 _0610_
*1102 _0611_
*1103 _0612_
*1104 _0613_
*1105 _0614_
*1106 _0615_
*1107 _0616_
*1108 _0617_
*1109 _0618_
*1110 _0619_
*1111 _0620_
*1112 _0621_
*1113 _0622_
*1114 _0623_
*1115 _0624_
*1116 _0625_
*1117 _0626_
*1118 _0627_
*1119 _0628_
*1120 _0629_
*1121 _0630_
*1122 _0631_
*1123 _0632_
*1124 _0633_
*1125 _0634_
*1126 _0635_
*1127 _0636_
*1128 _0637_
*1129 _0638_
*1130 _0639_
*1131 _0640_
*1132 _0641_
*1133 _0642_
*1134 _0643_
*1135 _0644_
*1136 _0645_
*1137 _0646_
*1138 _0647_
*1139 _0648_
*1140 _0649_
*1141 _0650_
*1142 _0651_
*1143 _0652_
*1144 _0653_
*1145 _0654_
*1146 _0655_
*1147 _0656_
*1148 _0657_
*1149 _0658_
*1150 _0659_
*1151 _0660_
*1152 _0661_
*1153 _0662_
*1154 _0663_
*1155 _0664_
*1156 _0665_
*1157 _0666_
*1158 _0667_
*1159 _0668_
*1160 _0669_
*1161 _0670_
*1162 _0671_
*1163 _0672_
*1164 _0673_
*1165 _0674_
*1166 _0675_
*1167 _0676_
*1168 _0677_
*1169 _0678_
*1170 _0679_
*1171 _0680_
*1172 _0681_
*1173 _0682_
*1174 _0683_
*1175 _0684_
*1176 _0685_
*1177 _0686_
*1178 _0687_
*1179 _0688_
*1180 _0689_
*1181 _0690_
*1182 _0691_
*1183 _0692_
*1184 _0693_
*1185 _0694_
*1186 _0695_
*1187 _0696_
*1188 _0697_
*1189 _0698_
*1190 _0699_
*1191 _0700_
*1192 _0701_
*1193 _0702_
*1194 _0703_
*1195 _0704_
*1196 _0705_
*1197 _0706_
*1198 _0707_
*1199 _0708_
*1200 _0709_
*1201 _0710_
*1202 _0711_
*1203 _0712_
*1204 _0713_
*1205 _0714_
*1206 _0715_
*1207 _0716_
*1208 _0717_
*1209 _0718_
*1210 _0719_
*1211 _0720_
*1212 _0721_
*1213 _0722_
*1214 _0723_
*1215 _0724_
*1216 _0725_
*1217 _0726_
*1218 _0727_
*1219 _0728_
*1220 _0729_
*1221 _0730_
*1222 _0731_
*1223 _0732_
*1224 _0733_
*1225 _0734_
*1226 _0735_
*1227 _0736_
*1228 _0737_
*1229 _0738_
*1230 _0739_
*1231 _0740_
*1232 _0741_
*1233 _0742_
*1234 _0743_
*1235 _0744_
*1236 _0745_
*1237 _0746_
*1238 _0747_
*1239 _0748_
*1240 _0749_
*1241 _0750_
*1242 _0751_
*1243 _0752_
*1244 _0753_
*1245 _0754_
*1246 _0755_
*1247 _0756_
*1248 _0757_
*1249 _0758_
*1250 _0759_
*1251 _0760_
*1252 _0761_
*1253 _0762_
*1254 _0763_
*1255 _0764_
*1256 _0765_
*1257 _0766_
*1258 _0767_
*1259 _0768_
*1260 _0769_
*1261 _0770_
*1262 _0771_
*1263 _0772_
*1264 _0773_
*1265 _0774_
*1266 _0775_
*1267 _0776_
*1268 _0777_
*1269 _0778_
*1270 _0779_
*1271 _0780_
*1272 _0781_
*1273 _0782_
*1274 _0783_
*1275 _0784_
*1276 _0785_
*1277 _0786_
*1278 _0787_
*1279 _0788_
*1280 _0789_
*1281 _0790_
*1282 _0791_
*1283 _0792_
*1284 _0793_
*1285 _0794_
*1286 _0795_
*1287 _0796_
*1288 _0797_
*1289 _0798_
*1290 _0799_
*1291 _0800_
*1292 _0801_
*1293 _0802_
*1294 _0803_
*1295 _0804_
*1296 _0805_
*1297 _0806_
*1298 _0807_
*1299 _0808_
*1300 _0809_
*1301 _0810_
*1302 _0811_
*1303 _0812_
*1304 _0813_
*1305 _0814_
*1306 _0815_
*1307 _0816_
*1308 _0817_
*1309 _0818_
*1310 _0819_
*1311 _0820_
*1312 _0821_
*1313 _0822_
*1314 _0823_
*1315 _0824_
*1316 _0825_
*1317 _0826_
*1318 _0827_
*1319 _0828_
*1320 _0829_
*1321 _0830_
*1322 _0831_
*1323 _0832_
*1324 _0833_
*1325 _0834_
*1326 _0835_
*1327 _0836_
*1328 _0837_
*1329 _0838_
*1330 _0839_
*1331 _0840_
*1332 _0841_
*1333 _0842_
*1334 _0843_
*1335 _0844_
*1336 _0845_
*1337 _0846_
*1338 _0847_
*1339 _0848_
*1340 _0849_
*1341 _0850_
*1342 _0851_
*1343 _0852_
*1344 _0853_
*1345 _0854_
*1346 _0855_
*1347 _0856_
*1348 _0857_
*1349 _0858_
*1350 _0859_
*1351 _0860_
*1352 _0861_
*1353 _0862_
*1354 _0863_
*1355 _0864_
*1356 _0865_
*1357 _0866_
*1358 _0867_
*1359 _0868_
*1360 _0869_
*1361 _0870_
*1362 _0871_
*1363 _0872_
*1364 _0873_
*1365 _0874_
*1366 _0875_
*1367 _0876_
*1368 _0877_
*1369 _0878_
*1370 _0879_
*1371 _0880_
*1372 _0881_
*1373 _0882_
*1374 _0883_
*1375 _0884_
*1376 _0885_
*1377 _0886_
*1378 _0887_
*1379 _0888_
*1380 _0889_
*1381 _0890_
*1382 _0891_
*1383 _0892_
*1384 _0893_
*1385 _0894_
*1386 _0895_
*1387 _0896_
*1388 _0897_
*1389 _0898_
*1390 _0899_
*1391 _0900_
*1392 _0901_
*1393 _0902_
*1394 _0903_
*1395 _0904_
*1396 _0905_
*1397 _0906_
*1398 _0907_
*1399 _0908_
*1400 _0909_
*1401 _0910_
*1402 _0911_
*1403 _0912_
*1404 _0913_
*1405 _0914_
*1406 _0915_
*1407 _0916_
*1408 _0917_
*1409 _0918_
*1410 _0919_
*1411 _0920_
*1412 _0921_
*1413 _0922_
*1414 _0923_
*1415 _0924_
*1416 _0925_
*1417 _0926_
*1418 _0927_
*1419 _0928_
*1420 _0929_
*1421 _0930_
*1422 _0931_
*1423 _0932_
*1424 _0933_
*1425 _0934_
*1426 _0935_
*1427 _0936_
*1428 _0937_
*1429 _0938_
*1430 _0939_
*1431 _0940_
*1432 _0941_
*1433 _0942_
*1434 _0943_
*1435 _0944_
*1436 _0945_
*1437 _0946_
*1438 _0947_
*1439 _0948_
*1440 _0949_
*1441 _0950_
*1442 _0951_
*1443 _0952_
*1444 _0953_
*1445 _0954_
*1446 _0955_
*1447 _0956_
*1448 _0957_
*1449 _0958_
*1450 _0959_
*1451 _0960_
*1452 _0961_
*1453 _0962_
*1454 _0963_
*1455 _0964_
*1456 _0965_
*1457 _0966_
*1458 _0967_
*1459 _0968_
*1460 _0969_
*1461 _0970_
*1462 _0971_
*1463 _0972_
*1464 _0973_
*1465 _0974_
*1466 _0975_
*1467 _0976_
*1468 _0977_
*1469 _0978_
*1470 _0979_
*1471 _0980_
*1472 _0981_
*1473 _0982_
*1474 _0983_
*1475 _0984_
*1476 _0985_
*1477 _0986_
*1478 _0987_
*1479 _0988_
*1480 _0989_
*1481 _0990_
*1482 _0991_
*1483 _0992_
*1484 _0993_
*1485 _0994_
*1486 _0995_
*1487 _0996_
*1488 _0997_
*1489 _0998_
*1490 _0999_
*1491 _1000_
*1492 _1001_
*1493 _1002_
*1494 _1003_
*1495 _1004_
*1496 _1005_
*1497 _1006_
*1498 _1007_
*1499 _1008_
*1500 _1009_
*1501 _1010_
*1502 _1011_
*1503 _1012_
*1504 _1013_
*1505 _1014_
*1506 _1015_
*1507 _1016_
*1508 _1017_
*1509 _1018_
*1510 _1019_
*1511 _1020_
*1512 _1021_
*1513 _1022_
*1514 _1023_
*1515 _1024_
*1516 _1025_
*1517 _1026_
*1518 _1027_
*1519 _1028_
*1520 _1029_
*1521 _1030_
*1522 _1031_
*1523 _1032_
*1524 _1033_
*1525 _1034_
*1526 _1035_
*1527 _1036_
*1528 _1037_
*1529 _1038_
*1530 _1039_
*1531 _1040_
*1532 _1041_
*1533 _1042_
*1534 _1043_
*1535 _1044_
*1536 _1045_
*1537 _1046_
*1538 _1047_
*1539 _1048_
*1540 _1049_
*1541 _1050_
*1542 _1051_
*1543 _1052_
*1544 _1053_
*1545 _1054_
*1546 _1055_
*1547 _1056_
*1548 _1057_
*1549 _1058_
*1550 _1059_
*1551 _1060_
*1552 _1061_
*1553 _1062_
*1554 _1063_
*1555 _1064_
*1556 _1065_
*1557 _1066_
*1558 _1067_
*1559 _1068_
*1560 _1069_
*1561 _1070_
*1562 _1071_
*1563 _1072_
*1564 _1073_
*1565 _1074_
*1566 _1075_
*1567 _1076_
*1568 _1077_
*1569 _1078_
*1570 _1079_
*1571 _1080_
*1572 _1081_
*1573 _1082_
*1574 _1083_
*1575 _1084_
*1576 _1085_
*1577 _1086_
*1578 _1087_
*1579 _1088_
*1580 _1089_
*1581 _1090_
*1582 _1091_
*1583 _1092_
*1584 _1093_
*1585 _1094_
*1586 _1095_
*1587 _1096_
*1588 _1097_
*1589 _1098_
*1590 _1099_
*1591 _1100_
*1592 _1101_
*1593 _1102_
*1594 _1103_
*1595 _1104_
*1596 _1105_
*1597 _1106_
*1598 _1107_
*1599 _1108_
*1600 _1109_
*1601 _1110_
*1602 _1111_
*1603 _1112_
*1604 _1113_
*1605 _1114_
*1606 _1115_
*1607 _1116_
*1608 _1117_
*1609 _1118_
*1610 _1119_
*1611 _1120_
*1612 _1121_
*1613 _1122_
*1614 _1123_
*1615 _1124_
*1616 _1125_
*1617 _1126_
*1618 _1127_
*1619 _1128_
*1620 _1129_
*1621 _1130_
*1622 _1131_
*1623 _1132_
*1624 _1133_
*1625 _1134_
*1626 _1135_
*1627 _1136_
*1628 _1137_
*1629 _1138_
*1630 _1139_
*1631 _1140_
*1632 _1141_
*1633 _1142_
*1634 _1143_
*1635 _1144_
*1636 _1145_
*1637 _1146_
*1638 _1147_
*1639 _1148_
*1640 _1149_
*1641 _1150_
*1642 _1151_
*1643 _1152_
*1644 _1153_
*1645 _1154_
*1646 _1155_
*1647 _1156_
*1648 _1157_
*1649 _1158_
*1650 _1159_
*1651 _1160_
*1652 _1161_
*1653 _1162_
*1654 _1163_
*1655 _1164_
*1656 _1165_
*1657 _1166_
*1658 _1167_
*1659 _1168_
*1660 _1169_
*1661 _1170_
*1662 _1171_
*1663 _1172_
*1664 _1173_
*1665 _1174_
*1666 _1175_
*1667 _1176_
*1668 _1177_
*1669 _1178_
*1670 _1179_
*1671 _1180_
*1672 _1181_
*1673 _1182_
*1674 _1183_
*1675 _1184_
*1676 _1185_
*1677 _1186_
*1678 _1187_
*1679 _1188_
*1680 _1189_
*1681 _1190_
*1682 _1191_
*1683 _1192_
*1684 _1193_
*1685 _1194_
*1686 _1195_
*1687 _1196_
*1688 _1197_
*1689 _1198_
*1690 _1199_
*1691 _1200_
*1692 _1201_
*1693 _1202_
*1694 _1203_
*1695 _1204_
*1696 _1205_
*1697 _1206_
*1698 _1207_
*1699 _1208_
*1700 _1209_
*1701 _1210_
*1702 _1211_
*1703 _1212_
*1704 _1213_
*1705 _1214_
*1706 _1215_
*1707 _1216_
*1708 _1217_
*1709 _1218_
*1710 _1219_
*1711 _1220_
*1712 _1221_
*1713 _1222_
*1714 _1223_
*1715 _1224_
*1716 _1225_
*1717 _1226_
*1718 _1227_
*1719 _1228_
*1720 _1229_
*1721 _1230_
*1722 _1231_
*1723 _1232_
*1724 _1233_
*1725 _1234_
*1726 _1235_
*1727 _1236_
*1728 _1237_
*1729 _1238_
*1730 _1239_
*1731 _1240_
*1732 _1241_
*1733 _1242_
*1734 _1243_
*1735 _1244_
*1736 _1245_
*1737 _1246_
*1738 _1247_
*1739 _1248_
*1740 _1249_
*1741 _1250_
*1742 _1251_
*1743 _1252_
*1744 _1253_
*1745 _1254_
*1746 _1255_
*1747 _1256_
*1748 _1257_
*1749 _1258_
*1750 _1259_
*1751 _1260_
*1752 _1261_
*1753 _1262_
*1754 _1263_
*1755 _1264_
*1756 _1265_
*1757 _1266_
*1758 _1267_
*1759 _1268_
*1760 _1269_
*1761 _1270_
*1762 _1271_
*1763 _1272_
*1764 _1273_
*1765 _1274_
*1766 _1275_
*1767 _1276_
*1768 _1277_
*1769 _1278_
*1770 _1279_
*1771 _1280_
*1772 _1281_
*1773 _1282_
*1774 _1283_
*1775 _1284_
*1776 _1285_
*1777 _1286_
*1778 _1287_
*1779 _1288_
*1780 _1289_
*1781 _1290_
*1782 _1291_
*1783 _1292_
*1784 _1293_
*1785 _1294_
*1786 _1295_
*1787 _1296_
*1788 _1297_
*1789 _1298_
*1790 _1299_
*1791 _1300_
*1792 _1301_
*1793 _1302_
*1794 _1303_
*1795 _1304_
*1796 _1305_
*1797 _1306_
*1798 _1307_
*1799 _1308_
*1800 _1309_
*1801 _1310_
*1802 _1311_
*1803 _1312_
*1804 _1313_
*1805 _1314_
*1806 _1315_
*1807 _1316_
*1808 _1317_
*1809 _1318_
*1810 _1319_
*1811 _1320_
*1812 _1321_
*1813 _1322_
*1814 _1323_
*1815 _1324_
*1816 _1325_
*1817 _1326_
*1818 _1327_
*1819 _1328_
*1820 _1329_
*1821 _1330_
*1822 _1331_
*1823 _1332_
*1824 _1333_
*1825 _1334_
*1826 _1335_
*1827 _1336_
*1828 _1337_
*1829 _1338_
*1830 _1339_
*1831 _1340_
*1832 _1341_
*1833 _1342_
*1834 _1343_
*1835 _1344_
*1836 _1345_
*1837 _1346_
*1838 _1347_
*1839 _1348_
*1840 _1349_
*1841 _1350_
*1842 _1351_
*1843 _1352_
*1844 _1353_
*1845 _1354_
*1846 _1355_
*1847 _1356_
*1848 _1357_
*1849 _1358_
*1850 _1359_
*1851 _1360_
*1852 _1361_
*1853 _1362_
*1854 _1363_
*1855 _1364_
*1856 _1365_
*1857 _1366_
*1858 _1367_
*1859 _1368_
*1860 _1369_
*1861 _1370_
*1862 _1371_
*1863 _1372_
*1864 _1373_