*SPEF "ieee 1481-1999"
*DESIGN "fpga"
*DATE "10:05:02 Wednesday July 16, 2025"
*VENDOR "The OpenROAD Project"
*PROGRAM "OpenROAD"
*VERSION "edf00dff99f6c40d67a30c0e22a8191c5d2ed9d6"
*DESIGN_FLOW "NAME_SCOPE LOCAL" "PIN_CAP NONE"
*DIVIDER /
*DELIMITER :
*BUS_DELIMITER []
*T_UNIT 1 NS
*C_UNIT 1 PF
*R_UNIT 1 OHM
*L_UNIT 1 HENRY

*NAME_MAP
*1 clk
*2 config_data_in
*3 config_data_out
*4 config_en
*5 io_east_in[0]
*6 io_east_in[10]
*7 io_east_in[11]
*8 io_east_in[12]
*9 io_east_in[13]
*10 io_east_in[14]
*11 io_east_in[15]
*12 io_east_in[16]
*13 io_east_in[17]
*14 io_east_in[18]
*15 io_east_in[19]
*16 io_east_in[1]
*17 io_east_in[20]
*18 io_east_in[21]
*19 io_east_in[22]
*20 io_east_in[23]
*21 io_east_in[24]
*22 io_east_in[25]
*23 io_east_in[26]
*24 io_east_in[27]
*25 io_east_in[28]
*26 io_east_in[29]
*27 io_east_in[2]
*28 io_east_in[30]
*29 io_east_in[31]
*30 io_east_in[3]
*31 io_east_in[4]
*32 io_east_in[5]
*33 io_east_in[6]
*34 io_east_in[7]
*35 io_east_in[8]
*36 io_east_in[9]
*37 io_east_out[0]
*38 io_east_out[10]
*39 io_east_out[11]
*40 io_east_out[12]
*41 io_east_out[13]
*42 net234
*43 net235
*44 io_east_out[16]
*45 io_east_out[17]
*46 io_east_out[18]
*47 io_east_out[19]
*48 io_east_out[1]
*49 io_east_out[20]
*50 io_east_out[21]
*51 io_east_out[22]
*52 io_east_out[23]
*53 io_east_out[24]
*54 io_east_out[25]
*55 io_east_out[26]
*56 io_east_out[27]
*57 io_east_out[28]
*58 io_east_out[29]
*59 io_east_out[2]
*60 net236
*61 net237
*62 io_east_out[3]
*63 io_east_out[4]
*64 io_east_out[5]
*65 io_east_out[6]
*66 io_east_out[7]
*67 io_east_out[8]
*68 io_east_out[9]
*69 io_north_in[0]
*70 io_north_in[10]
*71 io_north_in[11]
*72 io_north_in[12]
*73 io_north_in[13]
*74 io_north_in[14]
*75 io_north_in[15]
*76 io_north_in[16]
*77 io_north_in[17]
*78 io_north_in[18]
*79 io_north_in[19]
*80 io_north_in[1]
*81 io_north_in[20]
*82 io_north_in[21]
*83 io_north_in[22]
*84 io_north_in[23]
*85 io_north_in[24]
*86 io_north_in[25]
*87 io_north_in[26]
*88 io_north_in[27]
*89 io_north_in[28]
*90 io_north_in[29]
*91 io_north_in[2]
*92 io_north_in[30]
*93 io_north_in[31]
*94 io_north_in[3]
*95 io_north_in[4]
*96 io_north_in[5]
*97 io_north_in[6]
*98 io_north_in[7]
*99 io_north_in[8]
*100 io_north_in[9]
*101 io_north_out[0]
*102 io_north_out[10]
*103 io_north_out[11]
*104 io_north_out[12]
*105 io_north_out[13]
*106 net238
*107 net239
*108 io_north_out[16]
*109 io_north_out[17]
*110 io_north_out[18]
*111 io_north_out[19]
*112 io_north_out[1]
*113 io_north_out[20]
*114 io_north_out[21]
*115 io_north_out[22]
*116 io_north_out[23]
*117 io_north_out[24]
*118 io_north_out[25]
*119 io_north_out[26]
*120 io_north_out[27]
*121 io_north_out[28]
*122 io_north_out[29]
*123 io_north_out[2]
*124 net240
*125 net241
*126 io_north_out[3]
*127 io_north_out[4]
*128 io_north_out[5]
*129 io_north_out[6]
*130 io_north_out[7]
*131 io_north_out[8]
*132 io_north_out[9]
*133 io_south_in[0]
*134 io_south_in[10]
*135 io_south_in[11]
*136 io_south_in[12]
*137 io_south_in[13]
*138 io_south_in[14]
*139 io_south_in[15]
*140 io_south_in[16]
*141 io_south_in[17]
*142 io_south_in[18]
*143 io_south_in[19]
*144 io_south_in[1]
*145 io_south_in[20]
*146 io_south_in[21]
*147 io_south_in[22]
*148 io_south_in[23]
*149 io_south_in[24]
*150 io_south_in[25]
*151 io_south_in[26]
*152 io_south_in[27]
*153 io_south_in[28]
*154 io_south_in[29]
*155 io_south_in[2]
*156 io_south_in[30]
*157 io_south_in[31]
*158 io_south_in[3]
*159 io_south_in[4]
*160 io_south_in[5]
*161 io_south_in[6]
*162 io_south_in[7]
*163 io_south_in[8]
*164 io_south_in[9]
*165 io_south_out[0]
*166 io_south_out[10]
*167 io_south_out[11]
*168 io_south_out[12]
*169 io_south_out[13]
*170 net242
*171 net243
*172 io_south_out[16]
*173 io_south_out[17]
*174 io_south_out[18]
*175 io_south_out[19]
*176 io_south_out[1]
*177 io_south_out[20]
*178 io_south_out[21]
*179 io_south_out[22]
*180 io_south_out[23]
*181 io_south_out[24]
*182 io_south_out[25]
*183 io_south_out[26]
*184 io_south_out[27]
*185 io_south_out[28]
*186 io_south_out[29]
*187 io_south_out[2]
*188 net244
*189 net245
*190 io_south_out[3]
*191 io_south_out[4]
*192 io_south_out[5]
*193 io_south_out[6]
*194 io_south_out[7]
*195 io_south_out[8]
*196 io_south_out[9]
*197 io_west_in[0]
*198 io_west_in[10]
*199 io_west_in[11]
*200 io_west_in[12]
*201 io_west_in[13]
*202 io_west_in[14]
*203 io_west_in[15]
*204 io_west_in[16]
*205 io_west_in[17]
*206 io_west_in[18]
*207 io_west_in[19]
*208 io_west_in[1]
*209 io_west_in[20]
*210 io_west_in[21]
*211 io_west_in[22]
*212 io_west_in[23]
*213 io_west_in[24]
*214 io_west_in[25]
*215 io_west_in[26]
*216 io_west_in[27]
*217 io_west_in[28]
*218 io_west_in[29]
*219 io_west_in[2]
*220 io_west_in[30]
*221 io_west_in[31]
*222 io_west_in[3]
*223 io_west_in[4]
*224 io_west_in[5]
*225 io_west_in[6]
*226 io_west_in[7]
*227 io_west_in[8]
*228 io_west_in[9]
*229 io_west_out[0]
*230 io_west_out[10]
*231 io_west_out[11]
*232 io_west_out[12]
*233 io_west_out[13]
*234 net246
*235 net247
*236 io_west_out[16]
*237 io_west_out[17]
*238 io_west_out[18]
*239 io_west_out[19]
*240 io_west_out[1]
*241 io_west_out[20]
*242 io_west_out[21]
*243 io_west_out[22]
*244 io_west_out[23]
*245 io_west_out[24]
*246 io_west_out[25]
*247 io_west_out[26]
*248 io_west_out[27]
*249 io_west_out[28]
*250 io_west_out[29]
*251 io_west_out[2]
*252 net248
*253 net249
*254 io_west_out[3]
*255 io_west_out[4]
*256 io_west_out[5]
*257 io_west_out[6]
*258 io_west_out[7]
*259 io_west_out[8]
*260 io_west_out[9]
*261 le_clk
*262 le_en
*263 le_nrst
*264 nrst
*267 bus0_1\[0\]
*268 bus0_1\[10\]
*269 bus0_1\[11\]
*270 bus0_1\[12\]
*271 bus0_1\[13\]
*272 bus0_1\[1\]
*273 bus0_1\[2\]
*274 bus0_1\[3\]
*275 bus0_1\[4\]
*276 bus0_1\[5\]
*277 bus0_1\[6\]
*278 bus0_1\[7\]
*279 bus0_1\[8\]
*280 bus0_1\[9\]
*281 bus0_2\[0\]
*282 bus0_2\[10\]
*283 bus0_2\[11\]
*284 bus0_2\[12\]
*285 bus0_2\[13\]
*286 bus0_2\[1\]
*287 bus0_2\[2\]
*288 bus0_2\[3\]
*289 bus0_2\[4\]
*290 bus0_2\[5\]
*291 bus0_2\[6\]
*292 bus0_2\[7\]
*293 bus0_2\[8\]
*294 bus0_2\[9\]
*295 bus1_0\[0\]
*296 bus1_0\[10\]
*297 bus1_0\[11\]
*298 bus1_0\[12\]
*299 bus1_0\[13\]
*300 bus1_0\[1\]
*301 bus1_0\[2\]
*302 bus1_0\[3\]
*303 bus1_0\[4\]
*304 bus1_0\[5\]
*305 bus1_0\[6\]
*306 bus1_0\[7\]
*307 bus1_0\[8\]
*308 bus1_0\[9\]
*309 bus1_3\[0\]
*310 bus1_3\[10\]
*311 bus1_3\[11\]
*312 bus1_3\[12\]
*313 bus1_3\[13\]
*314 bus1_3\[1\]
*315 bus1_3\[2\]
*316 bus1_3\[3\]
*317 bus1_3\[4\]
*318 bus1_3\[5\]
*319 bus1_3\[6\]
*320 bus1_3\[7\]
*321 bus1_3\[8\]
*322 bus1_3\[9\]
*323 bus2_0\[0\]
*324 bus2_0\[10\]
*325 bus2_0\[11\]
*326 bus2_0\[12\]
*327 bus2_0\[13\]
*328 bus2_0\[1\]
*329 bus2_0\[2\]
*330 bus2_0\[3\]
*331 bus2_0\[4\]
*332 bus2_0\[5\]
*333 bus2_0\[6\]
*334 bus2_0\[7\]
*335 bus2_0\[8\]
*336 bus2_0\[9\]
*337 bus2_3\[0\]
*338 bus2_3\[10\]
*339 bus2_3\[11\]
*340 bus2_3\[12\]
*341 bus2_3\[13\]
*342 bus2_3\[1\]
*343 bus2_3\[2\]
*344 bus2_3\[3\]
*345 bus2_3\[4\]
*346 bus2_3\[5\]
*347 bus2_3\[6\]
*348 bus2_3\[7\]
*349 bus2_3\[8\]
*350 bus2_3\[9\]
*351 bus3_1\[0\]
*352 bus3_1\[10\]
*353 bus3_1\[11\]
*354 bus3_1\[12\]
*355 bus3_1\[13\]
*356 bus3_1\[1\]
*357 bus3_1\[2\]
*358 bus3_1\[3\]
*359 bus3_1\[4\]
*360 bus3_1\[5\]
*361 bus3_1\[6\]
*362 bus3_1\[7\]
*363 bus3_1\[8\]
*364 bus3_1\[9\]
*365 bus3_2\[0\]
*366 bus3_2\[10\]
*367 bus3_2\[11\]
*368 bus3_2\[12\]
*369 bus3_2\[13\]
*370 bus3_2\[1\]
*371 bus3_2\[2\]
*372 bus3_2\[3\]
*373 bus3_2\[4\]
*374 bus3_2\[5\]
*375 bus3_2\[6\]
*376 bus3_2\[7\]
*377 bus3_2\[8\]
*378 bus3_2\[9\]
*379 cell0_cram_out
*380 cell1_cram_out
*381 cell2_cram_out
*382 clknet_0_clk
*383 clknet_1_0__leaf_clk
*384 clknet_1_1__leaf_clk
*385 net1
*386 net10
*387 net100
*388 net101
*389 net102
*390 net103
*391 net104
*392 net105
*393 net106
*394 net107
*395 net108
*396 net109
*397 net11
*398 net110
*399 net111
*400 net112
*401 net113
*402 net114
*403 net115
*404 net116
*405 net117
*406 net118
*407 net119
*408 net12
*409 net120
*410 net121
*411 net122
*412 net123
*413 net124
*414 net125
*415 net126
*416 net127
*417 net128
*418 net129
*419 net13
*420 net130
*421 net131
*422 net132
*423 net133
*424 net134
*425 net135
*426 net136
*427 net137
*428 net138
*429 net139
*430 net14
*431 net140
*432 net141
*433 net142
*434 net143
*435 net144
*436 net145
*437 net146
*438 net147
*439 net148
*440 net149
*441 net15
*442 net150
*443 net151
*444 net152
*445 net153
*446 net154
*447 net155
*448 net156
*449 net157
*450 net158
*451 net159
*452 net16
*453 net160
*454 net161
*455 net162
*456 net163
*457 net164
*458 net165
*459 net166
*460 net167
*461 net168
*462 net169
*463 net17
*464 net170
*465 net171
*466 net172
*467 net173
*468 net174
*469 net175
*470 net176
*471 net177
*472 net178
*473 net179
*474 net18
*475 net180
*476 net181
*477 net182
*478 net183
*479 net184
*480 net185
*481 net186
*482 net187
*483 net188
*484 net189
*485 net19
*486 net190
*487 net191
*488 net192
*489 net193
*490 net194
*491 net195
*492 net196
*493 net197
*494 net198
*495 net199
*496 net2
*497 net20
*498 net200
*499 net201
*500 net202
*501 net203
*502 net204
*503 net205
*504 net206
*505 net207
*506 net208
*507 net209
*508 net21
*509 net210
*510 net211
*511 net212
*512 net213
*513 net214
*514 net215
*515 net216
*516 net217
*517 net218
*518 net219
*519 net22
*520 net220
*521 net221
*522 net222
*523 net223
*524 net224
*525 net225
*526 net226
*527 net227
*528 net228
*529 net229
*530 net23
*531 net230
*532 net231
*533 net232
*534 net233
*535 net24
*536 net25
*537 net26
*538 net27
*539 net28
*540 net29
*541 net3
*542 net30
*543 net31
*544 net32
*545 net33
*546 net34
*547 net35
*548 net36
*549 net37
*550 net38
*551 net39
*552 net4
*553 net40
*554 net41
*555 net42
*556 net43
*557 net44
*558 net45
*559 net46
*560 net47
*561 net48
*562 net49
*563 net5
*564 net50
*565 net51
*566 net52
*567 net53
*568 net54
*569 net55
*570 net56
*571 net57
*572 net58
*573 net59
*574 net6
*575 net60
*576 net61
*577 net62
*578 net63
*579 net64
*580 net65
*581 net66
*582 net67
*583 net68
*584 net69
*585 net7
*586 net70
*587 net71
*588 net72
*589 net73
*590 net74
*591 net75
*592 net76
*593 net77
*594 net78
*595 net79
*596 net8
*597 net80
*598 net81
*599 net82
*600 net83
*601 net84
*602 net85
*603 net86
*604 net87
*605 net88
*606 net89
*607 net9
*608 net90
*609 net91
*610 net92
*611 net93
*612 net94
*613 net95
*614 net96
*615 net97
*616 net98
*617 net99
*618 ANTENNA_1
*619 FILLER_0_109
*620 FILLER_0_123
*621 FILLER_0_130
*622 FILLER_0_138
*623 FILLER_0_145
*624 FILLER_0_15
*625 FILLER_0_153
*626 FILLER_0_158
*627 FILLER_0_165
*628 FILLER_0_169
*629 FILLER_0_179
*630 FILLER_0_187
*631 FILLER_0_193
*632 FILLER_0_197
*633 FILLER_0_207
*634 FILLER_0_214
*635 FILLER_0_222
*636 FILLER_0_229
*637 FILLER_0_237
*638 FILLER_0_242
*639 FILLER_0_249
*640 FILLER_0_253
*641 FILLER_0_263
*642 FILLER_0_27
*643 FILLER_0_271
*644 FILLER_0_277
*645 FILLER_0_281
*646 FILLER_0_29
*647 FILLER_0_290
*648 FILLER_0_297
*649 FILLER_0_3
*650 FILLER_0_305
*651 FILLER_0_312
*652 FILLER_0_320
*653 FILLER_0_325
*654 FILLER_0_332
*655 FILLER_0_337
*656 FILLER_0_346
*657 FILLER_0_354
*658 FILLER_0_360
*659 FILLER_0_365
*660 FILLER_0_374
*661 FILLER_0_381
*662 FILLER_0_389
*663 FILLER_0_396
*664 FILLER_0_404
*665 FILLER_0_41
*666 FILLER_0_410
*667 FILLER_0_417
*668 FILLER_0_421
*669 FILLER_0_437
*670 FILLER_0_445
*671 FILLER_0_459
*672 FILLER_0_471
*673 FILLER_0_475
*674 FILLER_0_477
*675 FILLER_0_489
*676 FILLER_0_501
*677 FILLER_0_505
*678 FILLER_0_517
*679 FILLER_0_522
*680 FILLER_0_53
*681 FILLER_0_530
*682 FILLER_0_537
*683 FILLER_0_543
*684 FILLER_0_551
*685 FILLER_0_557
*686 FILLER_0_561
*687 FILLER_0_57
*688 FILLER_0_571
*689 FILLER_0_579
*690 FILLER_0_585
*691 FILLER_0_593
*692 FILLER_0_601
*693 FILLER_0_606
*694 FILLER_0_614
*695 FILLER_0_621
*696 FILLER_0_627
*697 FILLER_0_635
*698 FILLER_0_641
*699 FILLER_0_645
*700 FILLER_0_655
*701 FILLER_0_663
*702 FILLER_0_669
*703 FILLER_0_677
*704 FILLER_0_685
*705 FILLER_0_689
*706 FILLER_0_69
*707 FILLER_0_697
*708 FILLER_0_704
*709 FILLER_0_710
*710 FILLER_0_718
*711 FILLER_0_724
*712 FILLER_0_729
*713 FILLER_0_738
*714 FILLER_0_746
*715 FILLER_0_752
*716 FILLER_0_760
*717 FILLER_0_768
*718 FILLER_0_773
*719 FILLER_0_781
*720 FILLER_0_788
*721 FILLER_0_794
*722 FILLER_0_802
*723 FILLER_0_809
*724 FILLER_0_81
*725 FILLER_0_813
*726 FILLER_0_823
*727 FILLER_0_835
*728 FILLER_0_839
*729 FILLER_0_851
*730 FILLER_0_863
*731 FILLER_0_867
*732 FILLER_0_869
*733 FILLER_0_881
*734 FILLER_0_893
*735 FILLER_0_897
*736 FILLER_0_909
*737 FILLER_0_96
*738 FILLER_100_18
*739 FILLER_100_26
*740 FILLER_100_29
*741 FILLER_100_6
*742 FILLER_100_885
*743 FILLER_100_897
*744 FILLER_100_905
*745 FILLER_101_15
*746 FILLER_101_27
*747 FILLER_101_3
*748 FILLER_101_885
*749 FILLER_101_897
*750 FILLER_101_909
*751 FILLER_102_15
*752 FILLER_102_27
*753 FILLER_102_29
*754 FILLER_102_3
*755 FILLER_102_885
*756 FILLER_102_897
*757 FILLER_102_909
*758 FILLER_103_18
*759 FILLER_103_6
*760 FILLER_103_885
*761 FILLER_103_897
*762 FILLER_103_905
*763 FILLER_104_15
*764 FILLER_104_27
*765 FILLER_104_29
*766 FILLER_104_3
*767 FILLER_104_885
*768 FILLER_104_897
*769 FILLER_104_909
*770 FILLER_105_18
*771 FILLER_105_6
*772 FILLER_105_885
*773 FILLER_105_897
*774 FILLER_105_905
*775 FILLER_106_15
*776 FILLER_106_27
*777 FILLER_106_29
*778 FILLER_106_3
*779 FILLER_106_885
*780 FILLER_106_897
*781 FILLER_106_909
*782 FILLER_107_18
*783 FILLER_107_6
*784 FILLER_107_885
*785 FILLER_107_897
*786 FILLER_107_905
*787 FILLER_108_15
*788 FILLER_108_27
*789 FILLER_108_29
*790 FILLER_108_3
*791 FILLER_108_885
*792 FILLER_108_897
*793 FILLER_108_909
*794 FILLER_109_18
*795 FILLER_109_6
*796 FILLER_109_885
*797 FILLER_109_897
*798 FILLER_109_905
*799 FILLER_10_15
*800 FILLER_10_27
*801 FILLER_10_29
*802 FILLER_10_3
*803 FILLER_10_885
*804 FILLER_10_897
*805 FILLER_10_909
*806 FILLER_110_18
*807 FILLER_110_26
*808 FILLER_110_29
*809 FILLER_110_6
*810 FILLER_110_885
*811 FILLER_110_897
*812 FILLER_110_905
*813 FILLER_111_15
*814 FILLER_111_27
*815 FILLER_111_3
*816 FILLER_111_885
*817 FILLER_111_897
*818 FILLER_111_909
*819 FILLER_112_15
*820 FILLER_112_27
*821 FILLER_112_29
*822 FILLER_112_3
*823 FILLER_112_885
*824 FILLER_112_897
*825 FILLER_112_909
*826 FILLER_113_19
*827 FILLER_113_27
*828 FILLER_113_7
*829 FILLER_113_885
*830 FILLER_113_897
*831 FILLER_113_905
*832 FILLER_114_15
*833 FILLER_114_27
*834 FILLER_114_29
*835 FILLER_114_3
*836 FILLER_114_885
*837 FILLER_114_897
*838 FILLER_114_909
*839 FILLER_115_19
*840 FILLER_115_27
*841 FILLER_115_7
*842 FILLER_115_885
*843 FILLER_115_897
*844 FILLER_115_905
*845 FILLER_116_15
*846 FILLER_116_27
*847 FILLER_116_29
*848 FILLER_116_3
*849 FILLER_116_885
*850 FILLER_116_897
*851 FILLER_116_909
*852 FILLER_117_19
*853 FILLER_117_27
*854 FILLER_117_7
*855 FILLER_117_885
*856 FILLER_117_897
*857 FILLER_117_905
*858 FILLER_118_15
*859 FILLER_118_27
*860 FILLER_118_29
*861 FILLER_118_3
*862 FILLER_118_885
*863 FILLER_118_897
*864 FILLER_118_905
*865 FILLER_119_19
*866 FILLER_119_27
*867 FILLER_119_7
*868 FILLER_119_885
*869 FILLER_119_897
*870 FILLER_119_905
*871 FILLER_11_15
*872 FILLER_11_27
*873 FILLER_11_3
*874 FILLER_11_885
*875 FILLER_11_897
*876 FILLER_11_909
*877 FILLER_120_19
*878 FILLER_120_27
*879 FILLER_120_29
*880 FILLER_120_7
*881 FILLER_120_885
*882 FILLER_120_897
*883 FILLER_120_905
*884 FILLER_121_15
*885 FILLER_121_27
*886 FILLER_121_3
*887 FILLER_121_885
*888 FILLER_121_897
*889 FILLER_121_909
*890 FILLER_122_15
*891 FILLER_122_27
*892 FILLER_122_29
*893 FILLER_122_3
*894 FILLER_122_885
*895 FILLER_122_897
*896 FILLER_122_909
*897 FILLER_123_19
*898 FILLER_123_27
*899 FILLER_123_7
*900 FILLER_123_885
*901 FILLER_123_897
*902 FILLER_123_905
*903 FILLER_124_15
*904 FILLER_124_27
*905 FILLER_124_29
*906 FILLER_124_3
*907 FILLER_124_885
*908 FILLER_124_897
*909 FILLER_124_909
*910 FILLER_125_19
*911 FILLER_125_27
*912 FILLER_125_7
*913 FILLER_125_885
*914 FILLER_125_897
*915 FILLER_125_905
*916 FILLER_126_15
*917 FILLER_126_27
*918 FILLER_126_29
*919 FILLER_126_3
*920 FILLER_126_885
*921 FILLER_126_897
*922 FILLER_126_909
*923 FILLER_127_19
*924 FILLER_127_27
*925 FILLER_127_7
*926 FILLER_127_885
*927 FILLER_127_897
*928 FILLER_127_905
*929 FILLER_128_15
*930 FILLER_128_27
*931 FILLER_128_29
*932 FILLER_128_3
*933 FILLER_128_885
*934 FILLER_128_897
*935 FILLER_128_909
*936 FILLER_129_19
*937 FILLER_129_27
*938 FILLER_129_7
*939 FILLER_129_885
*940 FILLER_129_897
*941 FILLER_129_905
*942 FILLER_12_15
*943 FILLER_12_27
*944 FILLER_12_29
*945 FILLER_12_3
*946 FILLER_12_885
*947 FILLER_12_897
*948 FILLER_12_909
*949 FILLER_130_19
*950 FILLER_130_27
*951 FILLER_130_29
*952 FILLER_130_7
*953 FILLER_130_885
*954 FILLER_130_897
*955 FILLER_130_905
*956 FILLER_131_15
*957 FILLER_131_27
*958 FILLER_131_3
*959 FILLER_131_885
*960 FILLER_131_897
*961 FILLER_131_909
*962 FILLER_132_15
*963 FILLER_132_27
*964 FILLER_132_29
*965 FILLER_132_3
*966 FILLER_132_885
*967 FILLER_132_897
*968 FILLER_132_909
*969 FILLER_133_19
*970 FILLER_133_27
*971 FILLER_133_7
*972 FILLER_133_885
*973 FILLER_133_897
*974 FILLER_134_15
*975 FILLER_134_27
*976 FILLER_134_29
*977 FILLER_134_3
*978 FILLER_134_885
*979 FILLER_134_897
*980 FILLER_134_909
*981 FILLER_135_19
*982 FILLER_135_27
*983 FILLER_135_7
*984 FILLER_135_885
*985 FILLER_135_897
*986 FILLER_135_905
*987 FILLER_136_15
*988 FILLER_136_27
*989 FILLER_136_29
*990 FILLER_136_3
*991 FILLER_136_885
*992 FILLER_136_897
*993 FILLER_136_909
*994 FILLER_137_19
*995 FILLER_137_27
*996 FILLER_137_7
*997 FILLER_137_885
*998 FILLER_137_897
*999 FILLER_137_905
*1000 FILLER_138_15
*1001 FILLER_138_27
*1002 FILLER_138_29
*1003 FILLER_138_3
*1004 FILLER_138_885
*1005 FILLER_138_897
*1006 FILLER_138_909
*1007 FILLER_139_19
*1008 FILLER_139_27
*1009 FILLER_139_7
*1010 FILLER_139_885
*1011 FILLER_139_897
*1012 FILLER_13_15
*1013 FILLER_13_27
*1014 FILLER_13_3
*1015 FILLER_13_885
*1016 FILLER_13_897
*1017 FILLER_13_909
*1018 FILLER_140_15
*1019 FILLER_140_27
*1020 FILLER_140_29
*1021 FILLER_140_3
*1022 FILLER_140_885
*1023 FILLER_140_897
*1024 FILLER_140_909
*1025 FILLER_141_15
*1026 FILLER_141_27
*1027 FILLER_141_3
*1028 FILLER_141_885
*1029 FILLER_141_897
*1030 FILLER_141_909
*1031 FILLER_142_15
*1032 FILLER_142_27
*1033 FILLER_142_29
*1034 FILLER_142_3
*1035 FILLER_142_885
*1036 FILLER_142_897
*1037 FILLER_142_909
*1038 FILLER_143_15
*1039 FILLER_143_27
*1040 FILLER_143_3
*1041 FILLER_143_885
*1042 FILLER_143_897
*1043 FILLER_143_909
*1044 FILLER_144_15
*1045 FILLER_144_27
*1046 FILLER_144_29
*1047 FILLER_144_3
*1048 FILLER_144_885
*1049 FILLER_144_897
*1050 FILLER_144_909
*1051 FILLER_145_15
*1052 FILLER_145_27
*1053 FILLER_145_3
*1054 FILLER_145_885
*1055 FILLER_145_897
*1056 FILLER_145_909
*1057 FILLER_146_15
*1058 FILLER_146_27
*1059 FILLER_146_29
*1060 FILLER_146_3
*1061 FILLER_146_885
*1062 FILLER_146_897
*1063 FILLER_146_909
*1064 FILLER_147_15
*1065 FILLER_147_27
*1066 FILLER_147_3
*1067 FILLER_147_885
*1068 FILLER_147_897
*1069 FILLER_147_909
*1070 FILLER_148_15
*1071 FILLER_148_27
*1072 FILLER_148_29
*1073 FILLER_148_3
*1074 FILLER_148_885
*1075 FILLER_148_897
*1076 FILLER_148_909
*1077 FILLER_149_15
*1078 FILLER_149_27
*1079 FILLER_149_3
*1080 FILLER_149_885
*1081 FILLER_149_897
*1082 FILLER_149_909
*1083 FILLER_14_15
*1084 FILLER_14_27
*1085 FILLER_14_29
*1086 FILLER_14_3
*1087 FILLER_14_885
*1088 FILLER_14_897
*1089 FILLER_14_909
*1090 FILLER_150_109
*1091 FILLER_150_113
*1092 FILLER_150_125
*1093 FILLER_150_137
*1094 FILLER_150_141
*1095 FILLER_150_15
*1096 FILLER_150_153
*1097 FILLER_150_165
*1098 FILLER_150_169
*1099 FILLER_150_181
*1100 FILLER_150_193
*1101 FILLER_150_197
*1102 FILLER_150_209
*1103 FILLER_150_221
*1104 FILLER_150_225
*1105 FILLER_150_237
*1106 FILLER_150_249
*1107 FILLER_150_253
*1108 FILLER_150_259
*1109 FILLER_150_27
*1110 FILLER_150_29
*1111 FILLER_150_3
*1112 FILLER_150_301
*1113 FILLER_150_307
*1114 FILLER_150_309
*1115 FILLER_150_321
*1116 FILLER_150_333
*1117 FILLER_150_337
*1118 FILLER_150_349
*1119 FILLER_150_361
*1120 FILLER_150_365
*1121 FILLER_150_377
*1122 FILLER_150_389
*1123 FILLER_150_393
*1124 FILLER_150_405
*1125 FILLER_150_41
*1126 FILLER_150_417
*1127 FILLER_150_421
*1128 FILLER_150_433
*1129 FILLER_150_445
*1130 FILLER_150_449
*1131 FILLER_150_461
*1132 FILLER_150_473
*1133 FILLER_150_477
*1134 FILLER_150_485
*1135 FILLER_150_505
*1136 FILLER_150_517
*1137 FILLER_150_529
*1138 FILLER_150_53
*1139 FILLER_150_533
*1140 FILLER_150_545
*1141 FILLER_150_557
*1142 FILLER_150_561
*1143 FILLER_150_57
*1144 FILLER_150_573
*1145 FILLER_150_585
*1146 FILLER_150_589
*1147 FILLER_150_601
*1148 FILLER_150_613
*1149 FILLER_150_617
*1150 FILLER_150_629
*1151 FILLER_150_641
*1152 FILLER_150_645
*1153 FILLER_150_657
*1154 FILLER_150_669
*1155 FILLER_150_673
*1156 FILLER_150_685
*1157 FILLER_150_69
*1158 FILLER_150_697
*1159 FILLER_150_701
*1160 FILLER_150_713
*1161 FILLER_150_725
*1162 FILLER_150_729
*1163 FILLER_150_741
*1164 FILLER_150_753
*1165 FILLER_150_757
*1166 FILLER_150_769
*1167 FILLER_150_781
*1168 FILLER_150_785
*1169 FILLER_150_797
*1170 FILLER_150_809
*1171 FILLER_150_81
*1172 FILLER_150_813
*1173 FILLER_150_825
*1174 FILLER_150_837
*1175 FILLER_150_841
*1176 FILLER_150_85
*1177 FILLER_150_853
*1178 FILLER_150_865
*1179 FILLER_150_869
*1180 FILLER_150_881
*1181 FILLER_150_893
*1182 FILLER_150_897
*1183 FILLER_150_909
*1184 FILLER_150_97
*1185 FILLER_151_105
*1186 FILLER_151_111
*1187 FILLER_151_113
*1188 FILLER_151_125
*1189 FILLER_151_137
*1190 FILLER_151_149
*1191 FILLER_151_15
*1192 FILLER_151_161
*1193 FILLER_151_167
*1194 FILLER_151_169
*1195 FILLER_151_181
*1196 FILLER_151_193
*1197 FILLER_151_205
*1198 FILLER_151_217
*1199 FILLER_151_223
*1200 FILLER_151_225
*1201 FILLER_151_237
*1202 FILLER_151_249
*1203 FILLER_151_261
*1204 FILLER_151_27
*1205 FILLER_151_273
*1206 FILLER_151_279
*1207 FILLER_151_281
*1208 FILLER_151_293
*1209 FILLER_151_3
*1210 FILLER_151_305
*1211 FILLER_151_317
*1212 FILLER_151_329
*1213 FILLER_151_335
*1214 FILLER_151_337
*1215 FILLER_151_349
*1216 FILLER_151_361
*1217 FILLER_151_373
*1218 FILLER_151_385
*1219 FILLER_151_39
*1220 FILLER_151_391
*1221 FILLER_151_393
*1222 FILLER_151_405
*1223 FILLER_151_417
*1224 FILLER_151_429
*1225 FILLER_151_441
*1226 FILLER_151_447
*1227 FILLER_151_449
*1228 FILLER_151_461
*1229 FILLER_151_473
*1230 FILLER_151_481
*1231 FILLER_151_498
*1232 FILLER_151_505
*1233 FILLER_151_51
*1234 FILLER_151_517
*1235 FILLER_151_529
*1236 FILLER_151_541
*1237 FILLER_151_55
*1238 FILLER_151_553
*1239 FILLER_151_559
*1240 FILLER_151_561
*1241 FILLER_151_57
*1242 FILLER_151_573
*1243 FILLER_151_585
*1244 FILLER_151_597
*1245 FILLER_151_609
*1246 FILLER_151_615
*1247 FILLER_151_617
*1248 FILLER_151_629
*1249 FILLER_151_641
*1250 FILLER_151_653
*1251 FILLER_151_665
*1252 FILLER_151_671
*1253 FILLER_151_673
*1254 FILLER_151_685
*1255 FILLER_151_69
*1256 FILLER_151_697
*1257 FILLER_151_709
*1258 FILLER_151_721
*1259 FILLER_151_727
*1260 FILLER_151_729
*1261 FILLER_151_741
*1262 FILLER_151_753
*1263 FILLER_151_765
*1264 FILLER_151_777
*1265 FILLER_151_783
*1266 FILLER_151_785
*1267 FILLER_151_797
*1268 FILLER_151_809
*1269 FILLER_151_81
*1270 FILLER_151_821
*1271 FILLER_151_833
*1272 FILLER_151_839
*1273 FILLER_151_841
*1274 FILLER_151_853
*1275 FILLER_151_865
*1276 FILLER_151_877
*1277 FILLER_151_889
*1278 FILLER_151_895
*1279 FILLER_151_897
*1280 FILLER_151_909
*1281 FILLER_151_93
*1282 FILLER_152_109
*1283 FILLER_152_121
*1284 FILLER_152_133
*1285 FILLER_152_139
*1286 FILLER_152_141
*1287 FILLER_152_15
*1288 FILLER_152_153
*1289 FILLER_152_165
*1290 FILLER_152_177
*1291 FILLER_152_189
*1292 FILLER_152_195
*1293 FILLER_152_197
*1294 FILLER_152_209
*1295 FILLER_152_221
*1296 FILLER_152_233
*1297 FILLER_152_245
*1298 FILLER_152_251
*1299 FILLER_152_253
*1300 FILLER_152_265
*1301 FILLER_152_27
*1302 FILLER_152_277
*1303 FILLER_152_289
*1304 FILLER_152_29
*1305 FILLER_152_3
*1306 FILLER_152_301
*1307 FILLER_152_307
*1308 FILLER_152_309
*1309 FILLER_152_321
*1310 FILLER_152_333
*1311 FILLER_152_345
*1312 FILLER_152_357
*1313 FILLER_152_363
*1314 FILLER_152_365
*1315 FILLER_152_377
*1316 FILLER_152_389
*1317 FILLER_152_401
*1318 FILLER_152_41
*1319 FILLER_152_413
*1320 FILLER_152_419
*1321 FILLER_152_421
*1322 FILLER_152_433
*1323 FILLER_152_445
*1324 FILLER_152_457
*1325 FILLER_152_469
*1326 FILLER_152_475
*1327 FILLER_152_477
*1328 FILLER_152_489
*1329 FILLER_152_501
*1330 FILLER_152_513
*1331 FILLER_152_525
*1332 FILLER_152_53
*1333 FILLER_152_531
*1334 FILLER_152_533
*1335 FILLER_152_545
*1336 FILLER_152_557
*1337 FILLER_152_569
*1338 FILLER_152_581
*1339 FILLER_152_587
*1340 FILLER_152_589
*1341 FILLER_152_601
*1342 FILLER_152_613
*1343 FILLER_152_625
*1344 FILLER_152_637
*1345 FILLER_152_643
*1346 FILLER_152_645
*1347 FILLER_152_65
*1348 FILLER_152_657
*1349 FILLER_152_669
*1350 FILLER_152_681
*1351 FILLER_152_693
*1352 FILLER_152_699
*1353 FILLER_152_701
*1354 FILLER_152_713
*1355 FILLER_152_725
*1356 FILLER_152_737
*1357 FILLER_152_749
*1358 FILLER_152_755
*1359 FILLER_152_757
*1360 FILLER_152_769
*1361 FILLER_152_77
*1362 FILLER_152_781
*1363 FILLER_152_793
*1364 FILLER_152_805
*1365 FILLER_152_811
*1366 FILLER_152_813
*1367 FILLER_152_825
*1368 FILLER_152_83
*1369 FILLER_152_837
*1370 FILLER_152_849
*1371 FILLER_152_85
*1372 FILLER_152_861
*1373 FILLER_152_867
*1374 FILLER_152_869
*1375 FILLER_152_881
*1376 FILLER_152_893
*1377 FILLER_152_905
*1378 FILLER_152_97
*1379 FILLER_153_105
*1380 FILLER_153_111
*1381 FILLER_153_113
*1382 FILLER_153_125
*1383 FILLER_153_137
*1384 FILLER_153_149
*1385 FILLER_153_15
*1386 FILLER_153_161
*1387 FILLER_153_167
*1388 FILLER_153_169
*1389 FILLER_153_181
*1390 FILLER_153_193
*1391 FILLER_153_205
*1392 FILLER_153_217
*1393 FILLER_153_223
*1394 FILLER_153_225
*1395 FILLER_153_237
*1396 FILLER_153_249
*1397 FILLER_153_261
*1398 FILLER_153_27
*1399 FILLER_153_273
*1400 FILLER_153_279
*1401 FILLER_153_281
*1402 FILLER_153_293
*1403 FILLER_153_3
*1404 FILLER_153_305
*1405 FILLER_153_317
*1406 FILLER_153_329
*1407 FILLER_153_335
*1408 FILLER_153_337
*1409 FILLER_153_349
*1410 FILLER_153_361
*1411 FILLER_153_373
*1412 FILLER_153_385
*1413 FILLER_153_39
*1414 FILLER_153_391
*1415 FILLER_153_393
*1416 FILLER_153_405
*1417 FILLER_153_417
*1418 FILLER_153_429
*1419 FILLER_153_441
*1420 FILLER_153_447
*1421 FILLER_153_449
*1422 FILLER_153_461
*1423 FILLER_153_473
*1424 FILLER_153_492
*1425 FILLER_153_505
*1426 FILLER_153_51
*1427 FILLER_153_517
*1428 FILLER_153_529
*1429 FILLER_153_541
*1430 FILLER_153_55
*1431 FILLER_153_553
*1432 FILLER_153_559
*1433 FILLER_153_561
*1434 FILLER_153_57
*1435 FILLER_153_573
*1436 FILLER_153_585
*1437 FILLER_153_597
*1438 FILLER_153_609
*1439 FILLER_153_615
*1440 FILLER_153_617
*1441 FILLER_153_629
*1442 FILLER_153_641
*1443 FILLER_153_653
*1444 FILLER_153_665
*1445 FILLER_153_671
*1446 FILLER_153_673
*1447 FILLER_153_685
*1448 FILLER_153_69
*1449 FILLER_153_697
*1450 FILLER_153_709
*1451 FILLER_153_721
*1452 FILLER_153_727
*1453 FILLER_153_729
*1454 FILLER_153_741
*1455 FILLER_153_753
*1456 FILLER_153_765
*1457 FILLER_153_777
*1458 FILLER_153_783
*1459 FILLER_153_785
*1460 FILLER_153_797
*1461 FILLER_153_809
*1462 FILLER_153_81
*1463 FILLER_153_821
*1464 FILLER_153_833
*1465 FILLER_153_839
*1466 FILLER_153_841
*1467 FILLER_153_853
*1468 FILLER_153_865
*1469 FILLER_153_877
*1470 FILLER_153_889
*1471 FILLER_153_895
*1472 FILLER_153_897
*1473 FILLER_153_909
*1474 FILLER_153_93
*1475 FILLER_154_109
*1476 FILLER_154_113
*1477 FILLER_154_123
*1478 FILLER_154_130
*1479 FILLER_154_138
*1480 FILLER_154_147
*1481 FILLER_154_15
*1482 FILLER_154_153
*1483 FILLER_154_158
*1484 FILLER_154_165
*1485 FILLER_154_169
*1486 FILLER_154_179
*1487 FILLER_154_187
*1488 FILLER_154_193
*1489 FILLER_154_197
*1490 FILLER_154_207
*1491 FILLER_154_216
*1492 FILLER_154_235
*1493 FILLER_154_244
*1494 FILLER_154_251
*1495 FILLER_154_253
*1496 FILLER_154_263
*1497 FILLER_154_27
*1498 FILLER_154_271
*1499 FILLER_154_276
*1500 FILLER_154_281
*1501 FILLER_154_29
*1502 FILLER_154_291
*1503 FILLER_154_298
*1504 FILLER_154_3
*1505 FILLER_154_306
*1506 FILLER_154_313
*1507 FILLER_154_321
*1508 FILLER_154_326
*1509 FILLER_154_333
*1510 FILLER_154_337
*1511 FILLER_154_347
*1512 FILLER_154_355
*1513 FILLER_154_361
*1514 FILLER_154_365
*1515 FILLER_154_375
*1516 FILLER_154_382
*1517 FILLER_154_390
*1518 FILLER_154_397
*1519 FILLER_154_405
*1520 FILLER_154_41
*1521 FILLER_154_410
*1522 FILLER_154_417
*1523 FILLER_154_421
*1524 FILLER_154_431
*1525 FILLER_154_439
*1526 FILLER_154_445
*1527 FILLER_154_449
*1528 FILLER_154_458
*1529 FILLER_154_470
*1530 FILLER_154_477
*1531 FILLER_154_485
*1532 FILLER_154_505
*1533 FILLER_154_517
*1534 FILLER_154_522
*1535 FILLER_154_53
*1536 FILLER_154_530
*1537 FILLER_154_537
*1538 FILLER_154_545
*1539 FILLER_154_557
*1540 FILLER_154_564
*1541 FILLER_154_57
*1542 FILLER_154_571
*1543 FILLER_154_577
*1544 FILLER_154_585
*1545 FILLER_154_593
*1546 FILLER_154_601
*1547 FILLER_154_606
*1548 FILLER_154_614
*1549 FILLER_154_633
*1550 FILLER_154_643
*1551 FILLER_154_645
*1552 FILLER_154_657
*1553 FILLER_154_669
*1554 FILLER_154_676
*1555 FILLER_154_684
*1556 FILLER_154_69
*1557 FILLER_154_690
*1558 FILLER_154_698
*1559 FILLER_154_705
*1560 FILLER_154_711
*1561 FILLER_154_719
*1562 FILLER_154_725
*1563 FILLER_154_729
*1564 FILLER_154_739
*1565 FILLER_154_747
*1566 FILLER_154_753
*1567 FILLER_154_761
*1568 FILLER_154_769
*1569 FILLER_154_774
*1570 FILLER_154_782
*1571 FILLER_154_789
*1572 FILLER_154_795
*1573 FILLER_154_803
*1574 FILLER_154_809
*1575 FILLER_154_81
*1576 FILLER_154_813
*1577 FILLER_154_823
*1578 FILLER_154_831
*1579 FILLER_154_837
*1580 FILLER_154_845
*1581 FILLER_154_85
*1582 FILLER_154_857
*1583 FILLER_154_865
*1584 FILLER_154_869
*1585 FILLER_154_881
*1586 FILLER_154_893
*1587 FILLER_154_897
*1588 FILLER_154_909
*1589 FILLER_154_97
*1590 FILLER_15_15
*1591 FILLER_15_27
*1592 FILLER_15_3
*1593 FILLER_15_885
*1594 FILLER_15_897
*1595 FILLER_15_909
*1596 FILLER_16_15
*1597 FILLER_16_27
*1598 FILLER_16_29
*1599 FILLER_16_3
*1600 FILLER_16_885
*1601 FILLER_16_897
*1602 FILLER_16_909
*1603 FILLER_17_18
*1604 FILLER_17_6
*1605 FILLER_17_885