*SPEF "ieee 1481-1999"
*DESIGN "top"
*DATE "23:33:07 Thursday May 01, 2025"
*VENDOR "The OpenROAD Project"
*PROGRAM "OpenROAD"
*VERSION "edf00dff99f6c40d67a30c0e22a8191c5d2ed9d6"
*DESIGN_FLOW "NAME_SCOPE LOCAL" "PIN_CAP NONE"
*DIVIDER /
*DELIMITER :
*BUS_DELIMITER []
*T_UNIT 1 NS
*C_UNIT 1 PF
*R_UNIT 1 OHM
*L_UNIT 1 HENRY

*NAME_MAP
*3 clk
*4 keypad_i[0]
*5 keypad_i[10]
*6 keypad_i[11]
*7 keypad_i[12]
*8 keypad_i[13]
*9 keypad_i[1]
*10 keypad_i[2]
*11 keypad_i[3]
*12 keypad_i[4]
*13 keypad_i[5]
*14 keypad_i[6]
*15 keypad_i[7]
*16 keypad_i[8]
*17 keypad_i[9]
*18 n_rst
*19 pwm
*20 _0000_
*21 _0001_
*22 _0002_
*23 _0003_
*24 _0004_
*25 _0005_
*26 _0006_
*27 _0007_
*28 _0008_
*29 _0009_
*30 _0010_
*31 _0011_
*32 _0012_
*33 _0013_
*34 _0014_
*35 _0015_
*36 _0016_
*37 _0017_
*38 _0018_
*39 _0019_
*40 _0020_
*41 _0021_
*42 _0022_
*43 _0023_
*44 _0024_
*45 _0025_
*46 _0026_
*47 _0027_
*48 _0028_
*49 _0029_
*50 _0030_
*51 _0031_
*52 _0032_
*53 _0033_
*54 _0034_
*55 _0035_
*56 _0036_
*57 _0037_
*58 _0038_
*59 _0039_
*60 _0040_
*61 _0041_
*62 _0042_
*63 _0043_
*64 _0044_
*65 _0045_
*66 _0046_
*67 _0047_
*68 _0048_
*69 _0049_
*70 _0050_
*71 _0051_
*72 _0052_
*73 _0053_
*74 _0054_
*75 _0055_
*76 _0056_
*77 _0057_
*78 _0058_
*79 _0059_
*80 _0060_
*81 _0061_
*82 _0062_
*83 _0063_
*84 _0064_
*85 _0065_
*86 _0066_
*87 _0067_
*88 _0068_
*89 _0069_
*90 _0070_
*91 _0071_
*92 _0072_
*93 _0073_
*94 _0074_
*95 _0075_
*96 _0076_
*97 _0077_
*98 _0078_
*99 _0079_
*100 _0080_
*101 _0081_
*102 _0082_
*103 _0083_
*104 _0084_
*105 _0085_
*106 _0086_
*107 _0087_
*108 _0088_
*109 _0089_
*110 _0090_
*111 _0091_
*112 _0092_
*113 _0093_
*114 _0094_
*115 _0095_
*116 _0096_
*117 _0097_
*118 _0098_
*119 _0099_
*120 _0100_
*121 _0101_
*122 _0102_
*123 _0103_
*124 _0104_
*125 _0105_
*126 _0106_
*127 _0107_
*128 _0108_
*129 _0109_
*130 _0110_
*131 _0111_
*132 _0112_
*133 _0113_
*134 _0114_
*135 _0115_
*136 _0116_
*137 _0117_
*138 _0118_
*139 _0119_
*140 _0120_
*141 _0121_
*142 _0122_
*143 _0123_
*144 _0124_
*145 _0125_
*146 _0126_
*147 _0127_
*148 _0128_
*149 _0129_
*150 _0130_
*151 _0131_
*152 _0132_
*153 _0133_
*154 _0134_
*155 _0135_
*156 _0136_
*157 _0137_
*158 _0138_
*159 _0139_
*160 _0140_
*161 _0141_
*162 _0142_
*163 _0143_
*164 _0144_
*165 _0145_
*166 _0146_
*167 _0147_
*168 _0148_
*169 _0149_
*170 _0150_
*171 _0151_
*172 _0152_
*173 _0153_
*174 _0154_
*175 _0155_
*176 _0156_
*177 _0157_
*178 _0158_
*179 _0159_
*180 _0160_
*181 _0161_
*182 _0162_
*183 _0163_
*184 _0164_
*185 _0165_
*186 _0166_
*187 _0167_
*188 _0168_
*189 _0169_
*190 _0170_
*191 _0171_
*192 _0172_
*193 _0173_
*194 _0174_
*195 _0175_
*196 _0176_
*197 _0177_
*198 _0178_
*199 _0179_
*200 _0180_
*201 _0181_
*202 _0182_
*203 _0183_
*204 _0184_
*205 _0185_
*206 _0186_
*207 _0187_
*208 _0188_
*209 _0189_
*210 _0190_
*211 _0191_
*212 _0192_
*213 _0193_
*214 _0194_
*215 _0195_
*216 _0196_
*217 _0197_
*218 _0198_
*219 _0199_
*220 _0200_
*221 _0201_
*222 _0202_
*223 _0203_
*224 _0204_
*225 _0205_
*226 _0206_
*227 _0207_
*228 _0208_
*229 _0209_
*230 _0210_
*231 _0211_
*232 _0212_
*233 _0213_
*234 _0214_
*235 _0215_
*236 _0216_
*237 _0217_
*238 _0218_
*239 _0219_
*240 _0220_
*241 _0221_
*242 _0222_
*243 _0223_
*244 _0224_
*245 _0225_
*246 _0226_
*247 _0227_
*248 _0228_
*249 _0229_
*250 _0230_
*251 _0231_
*252 _0232_
*253 _0233_
*254 _0234_
*255 _0235_
*256 _0236_
*257 _0237_
*258 _0238_
*259 _0239_
*260 _0240_
*261 _0241_
*262 _0242_
*263 _0243_
*264 _0244_
*265 _0245_
*266 _0246_
*267 _0247_
*268 _0248_
*269 _0249_
*270 _0250_
*271 _0251_
*272 _0252_
*273 _0253_
*274 _0254_
*275 _0255_
*276 _0256_
*277 _0257_
*278 _0258_
*279 _0259_
*280 _0260_
*281 _0261_
*282 _0262_
*283 _0263_
*284 _0264_
*285 _0265_
*286 _0266_
*287 _0267_
*288 _0268_
*289 _0269_
*290 _0270_
*291 _0271_
*292 _0272_
*293 _0273_
*294 _0274_
*295 _0275_
*296 _0276_
*297 _0277_
*298 _0278_
*299 _0279_
*300 _0280_
*301 _0281_
*302 _0282_
*303 _0283_
*304 _0284_
*305 _0285_
*306 _0286_
*307 _0287_
*308 _0288_
*309 _0289_
*310 _0290_
*311 _0291_
*312 _0292_
*313 _0293_
*314 _0294_
*315 _0295_
*316 _0296_
*317 _0297_
*318 _0298_
*319 _0299_
*320 _0300_
*321 _0301_
*322 _0302_
*323 _0303_
*324 _0304_
*325 _0305_
*326 _0306_
*327 _0307_
*328 _0308_
*329 _0309_
*330 _0310_
*331 _0311_
*332 _0312_
*333 _0313_
*334 _0314_
*335 _0315_
*336 _0316_
*337 _0317_
*338 _0318_
*339 _0319_
*340 _0320_
*341 _0321_
*342 _0322_
*343 _0323_
*344 _0324_
*345 _0325_
*346 _0326_
*347 _0327_
*348 _0328_
*349 _0329_
*350 _0330_
*351 _0331_
*352 _0332_
*353 _0333_
*354 _0334_
*355 _0335_
*356 _0336_
*357 _0337_
*358 _0338_
*359 _0339_
*360 _0340_
*361 _0341_
*362 _0342_
*363 _0343_
*364 _0344_
*365 _0345_
*366 _0346_
*367 _0347_
*368 _0348_
*369 _0349_
*370 _0350_
*371 _0351_
*372 _0352_
*373 _0353_
*374 _0354_
*375 _0355_
*376 _0356_
*377 _0357_
*378 _0358_
*379 _0359_
*380 _0360_
*381 _0361_
*382 _0362_
*383 _0363_
*384 _0364_
*385 _0365_
*386 _0366_
*387 _0367_
*388 _0368_
*389 _0369_
*390 _0370_
*391 _0371_
*392 _0372_
*393 _0373_
*394 _0374_
*395 _0375_
*396 _0376_
*397 _0377_
*398 _0378_
*399 _0379_
*400 _0380_
*401 _0381_
*402 _0382_
*403 _0383_
*404 _0384_
*405 _0385_
*406 _0386_
*407 _0387_
*408 _0388_
*409 _0389_
*410 _0390_
*411 _0391_
*412 _0392_
*413 _0393_
*414 _0394_
*415 _0395_
*416 _0396_
*417 _0397_
*418 _0398_
*419 _0399_
*420 _0400_
*421 _0401_
*422 _0402_
*423 _0403_
*424 _0404_
*425 _0405_
*426 _0406_
*427 _0407_
*428 _0408_
*429 _0409_
*430 _0410_
*431 _0411_
*432 _0412_
*433 _0413_
*434 _0414_
*435 _0415_
*436 _0416_
*437 _0417_
*438 _0418_
*439 _0419_
*440 _0420_
*441 _0421_
*442 _0422_
*443 _0423_
*444 _0424_
*445 _0425_
*446 _0426_
*447 _0427_
*448 _0428_
*449 clknet_0_clk
*450 clknet_4_0_0_clk
*451 clknet_4_10_0_clk
*452 clknet_4_11_0_clk
*453 clknet_4_12_0_clk
*454 clknet_4_13_0_clk
*455 clknet_4_14_0_clk
*456 clknet_4_15_0_clk
*457 clknet_4_1_0_clk
*458 clknet_4_2_0_clk
*459 clknet_4_3_0_clk
*460 clknet_4_4_0_clk
*461 clknet_4_5_0_clk
*462 clknet_4_6_0_clk
*463 clknet_4_7_0_clk
*464 clknet_4_8_0_clk
*465 clknet_4_9_0_clk
*466 count\[0\]
*467 count\[10\]
*468 count\[11\]
*469 count\[12\]
*470 count\[13\]
*471 count\[14\]
*472 count\[15\]
*473 count\[1\]
*474 count\[2\]
*475 count\[3\]
*476 count\[4\]
*477 count\[5\]
*478 count\[6\]
*479 count\[7\]
*480 count\[8\]
*481 count\[9\]
*482 freq_div\.keycode\[0\]
*483 freq_div\.keycode\[1\]
*484 freq_div\.keycode\[2\]
*485 freq_div\.keycode\[3\]
*486 keypad\.keypad_reg\[0\]
*487 keypad\.keypad_reg\[10\]
*488 keypad\.keypad_reg\[11\]
*489 keypad\.keypad_reg\[12\]
*490 keypad\.keypad_reg\[13\]
*491 keypad\.keypad_reg\[1\]
*492 keypad\.keypad_reg\[2\]
*493 keypad\.keypad_reg\[3\]
*494 keypad\.keypad_reg\[4\]
*495 keypad\.keypad_reg\[5\]
*496 keypad\.keypad_reg\[6\]
*497 keypad\.keypad_reg\[7\]
*498 keypad\.keypad_reg\[8\]
*499 keypad\.keypad_reg\[9\]
*500 keypad\.modekey
*501 keypad\.n_modekey
*502 mode\[1\]
*503 net1
*504 net10
*505 net100
*506 net101
*507 net102
*508 net103
*509 net104
*510 net105
*511 net106
*512 net107
*513 net108
*514 net109
*515 net11
*516 net110
*517 net111
*518 net112
*519 net113
*520 net114
*521 net115
*522 net116
*523 net117
*524 net118
*525 net119
*526 net12
*527 net120
*528 net121
*529 net122
*530 net123
*531 net124
*532 net125
*533 net126
*534 net127
*535 net128
*536 net129
*537 net13
*538 net130
*539 net131
*540 net132
*541 net133
*542 net134
*543 net135
*544 net136
*545 net137
*546 net138
*547 net139
*548 net14
*549 net140
*550 net141
*551 net142
*552 net143
*553 net144
*554 net145
*555 net146
*556 net147
*557 net148
*558 net149
*559 net15
*560 net16
*561 net17
*562 net18
*563 net19
*564 net2
*565 net20
*566 net21
*567 net22
*568 net23
*569 net24
*570 net25
*571 net26
*572 net27
*573 net28
*574 net29
*575 net3
*576 net30
*577 net31
*578 net32
*579 net33
*580 net34
*581 net35
*582 net36
*583 net37
*584 net38
*585 net39
*586 net4
*587 net40
*588 net41
*589 net42
*590 net43
*591 net44
*592 net45
*593 net46
*594 net47
*595 net48
*596 net49
*597 net5
*598 net50
*599 net51
*600 net52
*601 net53
*602 net54
*603 net55
*604 net56
*605 net57
*606 net58
*607 net59
*608 net6
*609 net60
*610 net61
*611 net62
*612 net63
*613 net64
*614 net65
*615 net66
*616 net67
*617 net68
*618 net69
*619 net7
*620 net70
*621 net71
*622 net72
*623 net73
*624 net74
*625 net75
*626 net76
*627 net77
*628 net78
*629 net79
*630 net8
*631 net80
*632 net81
*633 net82
*634 net83
*635 net84
*636 net85
*637 net86
*638 net87
*639 net88
*640 net89
*641 net9
*642 net90
*643 net91
*644 net92
*645 net93
*646 net94
*647 net95
*648 net96
*649 net97
*650 net98
*651 net99
*652 oscill\.n_count\[0\]
*653 oscill\.n_count\[10\]
*654 oscill\.n_count\[11\]
*655 oscill\.n_count\[12\]
*656 oscill\.n_count\[13\]
*657 oscill\.n_count\[14\]
*658 oscill\.n_count\[1\]
*659 oscill\.n_count\[2\]
*660 oscill\.n_count\[3\]
*661 oscill\.n_count\[4\]
*662 oscill\.n_count\[5\]
*663 oscill\.n_count\[6\]
*664 oscill\.n_count\[7\]
*665 oscill\.n_count\[8\]
*666 oscill\.n_count\[9\]
*667 pwm1
*668 pwm_counter\.active_sample\[0\]
*669 pwm_counter\.active_sample\[1\]
*670 pwm_counter\.active_sample\[2\]
*671 pwm_counter\.active_sample\[3\]
*672 pwm_counter\.active_sample\[4\]
*673 pwm_counter\.active_sample\[5\]
*674 pwm_counter\.active_sample\[6\]
*675 pwm_counter\.active_sample\[7\]
*676 pwm_counter\.count\[0\]
*677 pwm_counter\.count\[1\]
*678 pwm_counter\.count\[2\]
*679 pwm_counter\.count\[3\]
*680 pwm_counter\.count\[4\]
*681 pwm_counter\.count\[5\]
*682 pwm_counter\.count\[6\]
*683 pwm_counter\.count\[7\]
*684 pwm_counter\.n_count\[0\]
*685 pwm_counter\.n_count\[1\]
*686 pwm_counter\.n_count\[2\]
*687 pwm_counter\.n_count\[3\]
*688 pwm_counter\.n_count\[4\]
*689 pwm_counter\.n_count\[5\]
*690 pwm_counter\.n_count\[6\]
*691 pwm_counter\.n_count\[7\]
*692 pwm_counter\.n_pwm
*693 pwm_counter\.sample\[0\]
*694 pwm_counter\.sample\[1\]
*695 pwm_counter\.sample\[2\]
*696 pwm_counter\.sample\[3\]
*697 pwm_counter\.sample\[4\]
*698 pwm_counter\.sample\[5\]
*699 pwm_counter\.sample\[6\]
*700 pwm_counter\.sample\[7\]
*701 sample_rate\.count\[0\]
*702 sample_rate\.count\[1\]
*703 sample_rate\.count\[2\]
*704 sample_rate\.count\[3\]
*705 sample_rate\.count\[4\]
*706 sample_rate\.count\[5\]
*707 sample_rate\.count\[6\]
*708 sample_rate\.count\[7\]
*709 sample_rate\.n_count\[0\]
*710 sample_rate\.n_count\[1\]
*711 sample_rate\.n_count\[2\]
*712 sample_rate\.n_count\[3\]
*713 sample_rate\.n_count\[4\]
*714 sample_rate\.n_count\[5\]
*715 state_machine\.fsmState\[0\]
*716 state_machine\.fsmState\[1\]
*717 state_machine\.nextState\[0\]
*718 state_machine\.nextState\[1\]
*719 state_machine\.nextState\[2\]
*720 waveshape\.scaled_count\[0\]
*721 waveshape\.scaled_count\[1\]
*722 waveshape\.scaled_count\[2\]
*723 waveshape\.scaled_count\[3\]
*724 waveshape\.scaled_count\[4\]
*725 waveshape\.scaled_count\[5\]
*726 waveshape\.scaled_count\[6\]
*727 waveshape\.scaled_count\[7\]
*728 waveshape\.seq_div\.dividend\[10\]
*729 waveshape\.seq_div\.dividend\[11\]
*730 waveshape\.seq_div\.dividend\[12\]
*731 waveshape\.seq_div\.dividend\[13\]
*732 waveshape\.seq_div\.dividend\[14\]
*733 waveshape\.seq_div\.dividend\[15\]
*734 waveshape\.seq_div\.dividend\[16\]
*735 waveshape\.seq_div\.dividend\[17\]
*736 waveshape\.seq_div\.dividend\[18\]
*737 waveshape\.seq_div\.dividend\[19\]
*738 waveshape\.seq_div\.dividend\[20\]
*739 waveshape\.seq_div\.dividend\[21\]
*740 waveshape\.seq_div\.dividend\[22\]
*741 waveshape\.seq_div\.dividend\[23\]
*742 waveshape\.seq_div\.dividend\[24\]
*743 waveshape\.seq_div\.dividend\[25\]
*744 waveshape\.seq_div\.dividend\[26\]
*745 waveshape\.seq_div\.dividend\[27\]
*746 waveshape\.seq_div\.dividend\[28\]
*747 waveshape\.seq_div\.dividend\[29\]
*748 waveshape\.seq_div\.dividend\[30\]
*749 waveshape\.seq_div\.dividend\[31\]
*750 waveshape\.seq_div\.dividend\[32\]
*751 waveshape\.seq_div\.dividend\[33\]
*752 waveshape\.seq_div\.dividend\[34\]
*753 waveshape\.seq_div\.dividend\[35\]
*754 waveshape\.seq_div\.dividend\[36\]
*755 waveshape\.seq_div\.dividend\[37\]
*756 waveshape\.seq_div\.dividend\[38\]
*757 waveshape\.seq_div\.dividend\[39\]
*758 waveshape\.seq_div\.dividend\[40\]
*759 waveshape\.seq_div\.dividend\[41\]
*760 waveshape\.seq_div\.dividend\[42\]
*761 waveshape\.seq_div\.dividend\[43\]
*762 waveshape\.seq_div\.dividend\[44\]
*763 waveshape\.seq_div\.dividend\[45\]
*764 waveshape\.seq_div\.dividend\[46\]
*765 waveshape\.seq_div\.dividend\[47\]
*766 waveshape\.seq_div\.dividend\[8\]
*767 waveshape\.seq_div\.dividend\[9\]
*768 waveshape\.seq_div\.n\[0\]
*769 waveshape\.seq_div\.n\[1\]
*770 waveshape\.seq_div\.n\[2\]
*771 waveshape\.seq_div\.n\[3\]
*772 waveshape\.seq_div\.n\[4\]
*773 waveshape\.seq_div\.state\[0\]
*774 waveshape\.seq_div\.state\[1\]
*775 waveshape\.seq_div\.state\[2\]
*776 waveshape\.seq_div\.state\[3\]
*777 waveshape\.seq_div\.state\[4\]
*778 waveshape\.shaper\.n_sample\[0\]
*779 waveshape\.shaper\.n_sample\[1\]
*780 waveshape\.shaper\.n_sample\[2\]
*781 waveshape\.shaper\.n_sample\[3\]
*782 waveshape\.shaper\.n_sample\[4\]
*783 waveshape\.shaper\.n_sample\[5\]
*784 waveshape\.shaper\.n_sample\[6\]
*785 waveshape\.shaper\.n_sample\[7\]
*786 FILLER_0_109
*787 FILLER_0_113
*788 FILLER_0_125
*789 FILLER_0_137
*790 FILLER_0_141
*791 FILLER_0_15
*792 FILLER_0_153
*793 FILLER_0_165
*794 FILLER_0_169
*795 FILLER_0_181
*796 FILLER_0_193
*797 FILLER_0_197
*798 FILLER_0_209
*799 FILLER_0_217
*800 FILLER_0_223
*801 FILLER_0_225
*802 FILLER_0_230
*803 FILLER_0_237
*804 FILLER_0_244
*805 FILLER_0_253
*806 FILLER_0_265
*807 FILLER_0_27
*808 FILLER_0_277
*809 FILLER_0_281
*810 FILLER_0_29
*811 FILLER_0_293
*812 FILLER_0_3
*813 FILLER_0_41
*814 FILLER_0_53
*815 FILLER_0_57
*816 FILLER_0_69
*817 FILLER_0_81
*818 FILLER_0_85
*819 FILLER_0_97
*820 FILLER_10_113
*821 FILLER_10_125
*822 FILLER_10_137
*823 FILLER_10_141
*824 FILLER_10_147
*825 FILLER_10_15
*826 FILLER_10_155
*827 FILLER_10_167
*828 FILLER_10_177
*829 FILLER_10_181
*830 FILLER_10_194
*831 FILLER_10_197
*832 FILLER_10_204
*833 FILLER_10_216
*834 FILLER_10_228
*835 FILLER_10_240
*836 FILLER_10_266
*837 FILLER_10_27
*838 FILLER_10_277
*839 FILLER_10_289
*840 FILLER_10_29
*841 FILLER_10_293
*842 FILLER_10_3
*843 FILLER_10_37
*844 FILLER_10_71
*845 FILLER_10_83
*846 FILLER_10_85
*847 FILLER_11_106
*848 FILLER_11_113
*849 FILLER_11_121
*850 FILLER_11_15
*851 FILLER_11_164
*852 FILLER_11_183
*853 FILLER_11_195
*854 FILLER_11_199
*855 FILLER_11_220
*856 FILLER_11_246
*857 FILLER_11_272
*858 FILLER_11_281
*859 FILLER_11_293
*860 FILLER_11_3
*861 FILLER_11_50
*862 FILLER_11_68
*863 FILLER_11_76
*864 FILLER_11_81
*865 FILLER_11_85
*866 FILLER_12_114
*867 FILLER_12_118
*868 FILLER_12_141
*869 FILLER_12_15
*870 FILLER_12_156
*871 FILLER_12_168
*872 FILLER_12_174
*873 FILLER_12_186
*874 FILLER_12_194
*875 FILLER_12_197
*876 FILLER_12_244
*877 FILLER_12_248
*878 FILLER_12_263
*879 FILLER_12_27
*880 FILLER_12_279
*881 FILLER_12_29
*882 FILLER_12_290
*883 FILLER_12_296
*884 FILLER_12_3
*885 FILLER_12_41
*886 FILLER_12_51
*887 FILLER_12_71
*888 FILLER_12_83
*889 FILLER_12_85
*890 FILLER_12_91
*891 FILLER_13_107
*892 FILLER_13_111
*893 FILLER_13_113
*894 FILLER_13_121
*895 FILLER_13_125
*896 FILLER_13_149
*897 FILLER_13_15
*898 FILLER_13_161
*899 FILLER_13_167
*900 FILLER_13_169
*901 FILLER_13_187
*902 FILLER_13_214
*903 FILLER_13_222
*904 FILLER_13_236
*905 FILLER_13_248
*906 FILLER_13_254
*907 FILLER_13_266
*908 FILLER_13_27
*909 FILLER_13_270
*910 FILLER_13_295
*911 FILLER_13_3
*912 FILLER_13_39
*913 FILLER_13_51
*914 FILLER_13_55
*915 FILLER_13_71
*916 FILLER_13_83
*917 FILLER_13_95
*918 FILLER_14_105
*919 FILLER_14_113
*920 FILLER_14_125
*921 FILLER_14_137
*922 FILLER_14_146
*923 FILLER_14_15
*924 FILLER_14_193
*925 FILLER_14_197
*926 FILLER_14_216
*927 FILLER_14_228
*928 FILLER_14_240
*929 FILLER_14_253
*930 FILLER_14_266
*931 FILLER_14_27
*932 FILLER_14_272
*933 FILLER_14_29
*934 FILLER_14_296
*935 FILLER_14_3
*936 FILLER_14_41
*937 FILLER_14_48
*938 FILLER_14_56
*939 FILLER_14_76
*940 FILLER_15_102
*941 FILLER_15_111
*942 FILLER_15_113
*943 FILLER_15_121
*944 FILLER_15_128
*945 FILLER_15_138
*946 FILLER_15_15
*947 FILLER_15_150
*948 FILLER_15_169
*949 FILLER_15_193
*950 FILLER_15_201
*951 FILLER_15_223
*952 FILLER_15_225
*953 FILLER_15_253
*954 FILLER_15_261
*955 FILLER_15_27
*956 FILLER_15_273
*957 FILLER_15_279
*958 FILLER_15_281
*959 FILLER_15_287
*960 FILLER_15_295
*961 FILLER_15_3
*962 FILLER_15_39
*963 FILLER_15_54
*964 FILLER_15_95
*965 FILLER_16_138
*966 FILLER_16_148
*967 FILLER_16_15
*968 FILLER_16_176
*969 FILLER_16_188
*970 FILLER_16_197
*971 FILLER_16_219
*972 FILLER_16_223
*973 FILLER_16_253
*974 FILLER_16_265
*975 FILLER_16_27
*976 FILLER_16_273
*977 FILLER_16_29
*978 FILLER_16_294
*979 FILLER_16_3
*980 FILLER_16_44
*981 FILLER_16_76
*982 FILLER_17_113
*983 FILLER_17_117
*984 FILLER_17_143
*985 FILLER_17_15
*986 FILLER_17_155
*987 FILLER_17_167
*988 FILLER_17_169
*989 FILLER_17_181
*990 FILLER_17_187
*991 FILLER_17_216
*992 FILLER_17_225
*993 FILLER_17_23
*994 FILLER_17_254
*995 FILLER_17_286
*996 FILLER_17_3
*997 FILLER_17_57
*998 FILLER_17_61
*999 FILLER_17_73
*1000 FILLER_17_77
*1001 FILLER_17_81
*1002 FILLER_17_89
*1003 FILLER_18_103
*1004 FILLER_18_117
*1005 FILLER_18_141
*1006 FILLER_18_149
*1007 FILLER_18_15
*1008 FILLER_18_161
*1009 FILLER_18_173
*1010 FILLER_18_185
*1011 FILLER_18_189
*1012 FILLER_18_217
*1013 FILLER_18_223
*1014 FILLER_18_253
*1015 FILLER_18_265
*1016 FILLER_18_27
*1017 FILLER_18_29
*1018 FILLER_18_293
*1019 FILLER_18_3
*1020 FILLER_18_41
*1021 FILLER_18_55
*1022 FILLER_18_67
*1023 FILLER_18_79
*1024 FILLER_18_83
*1025 FILLER_18_85
*1026 FILLER_19_105
*1027 FILLER_19_111
*1028 FILLER_19_113
*1029 FILLER_19_118
*1030 FILLER_19_129
*1031 FILLER_19_133
*1032 FILLER_19_15
*1033 FILLER_19_166
*1034 FILLER_19_169
*1035 FILLER_19_173
*1036 FILLER_19_182
*1037 FILLER_19_216
*1038 FILLER_19_245
*1039 FILLER_19_254
*1040 FILLER_19_27
*1041 FILLER_19_276
*1042 FILLER_19_287
*1043 FILLER_19_3
*1044 FILLER_19_39
*1045 FILLER_19_51
*1046 FILLER_19_55
*1047 FILLER_19_57
*1048 FILLER_19_69
*1049 FILLER_19_81
*1050 FILLER_19_93
*1051 FILLER_1_109
*1052 FILLER_1_113
*1053 FILLER_1_119
*1054 FILLER_1_138
*1055 FILLER_1_147
*1056 FILLER_1_15
*1057 FILLER_1_159
*1058 FILLER_1_167
*1059 FILLER_1_175
*1060 FILLER_1_187
*1061 FILLER_1_193
*1062 FILLER_1_205
*1063 FILLER_1_217
*1064 FILLER_1_223
*1065 FILLER_1_265
*1066 FILLER_1_27
*1067 FILLER_1_276
*1068 FILLER_1_281
*1069 FILLER_1_296
*1070 FILLER_1_3
*1071 FILLER_1_39
*1072 FILLER_1_51
*1073 FILLER_1_55
*1074 FILLER_1_64
*1075 FILLER_1_76
*1076 FILLER_1_97
*1077 FILLER_20_109
*1078 FILLER_20_121
*1079 FILLER_20_133
*1080 FILLER_20_139
*1081 FILLER_20_141
*1082 FILLER_20_15
*1083 FILLER_20_153
*1084 FILLER_20_162
*1085 FILLER_20_183
*1086 FILLER_20_195
*1087 FILLER_20_197
*1088 FILLER_20_209
*1089 FILLER_20_221
*1090 FILLER_20_250
*1091 FILLER_20_253
*1092 FILLER_20_265
*1093 FILLER_20_27
*1094 FILLER_20_273
*1095 FILLER_20_29
*1096 FILLER_20_296
*1097 FILLER_20_3
*1098 FILLER_20_41
*1099 FILLER_20_63
*1100 FILLER_20_75
*1101 FILLER_20_83
*1102 FILLER_20_85
*1103 FILLER_20_97
*1104 FILLER_21_104
*1105 FILLER_21_113
*1106 FILLER_21_119
*1107 FILLER_21_137
*1108 FILLER_21_145
*1109 FILLER_21_15
*1110 FILLER_21_183
*1111 FILLER_21_191
*1112 FILLER_21_198
*1113 FILLER_21_212
*1114 FILLER_21_233
*1115 FILLER_21_245
*1116 FILLER_21_249
*1117 FILLER_21_27
*1118 FILLER_21_270
*1119 FILLER_21_278
*1120 FILLER_21_281
*1121 FILLER_21_3
*1122 FILLER_21_35
*1123 FILLER_21_65
*1124 FILLER_21_73
*1125 FILLER_22_105
*1126 FILLER_22_139
*1127 FILLER_22_141
*1128 FILLER_22_15
*1129 FILLER_22_153
*1130 FILLER_22_174
*1131 FILLER_22_182
*1132 FILLER_22_188
*1133 FILLER_22_195
*1134 FILLER_22_218
*1135 FILLER_22_230
*1136 FILLER_22_242
*1137 FILLER_22_250
*1138 FILLER_22_253
*1139 FILLER_22_265
*1140 FILLER_22_27
*1141 FILLER_22_273
*1142 FILLER_22_29
*1143 FILLER_22_296
*1144 FILLER_22_3
*1145 FILLER_22_41
*1146 FILLER_22_73
*1147 FILLER_23_110
*1148 FILLER_23_113
*1149 FILLER_23_143
*1150 FILLER_23_15
*1151 FILLER_23_155
*1152 FILLER_23_164
*1153 FILLER_23_177
*1154 FILLER_23_181
*1155 FILLER_23_203
*1156 FILLER_23_225
*1157 FILLER_23_235
*1158 FILLER_23_247
*1159 FILLER_23_259
*1160 FILLER_23_27
*1161 FILLER_23_271
*1162 FILLER_23_279
*1163 FILLER_23_281
*1164 FILLER_23_293
*1165 FILLER_23_3
*1166 FILLER_23_39
*1167 FILLER_23_51
*1168 FILLER_23_55
*1169 FILLER_23_57
*1170 FILLER_23_61
*1171 FILLER_23_67
*1172 FILLER_23_98
*1173 FILLER_24_106
*1174 FILLER_24_114
*1175 FILLER_24_122
*1176 FILLER_24_126
*1177 FILLER_24_137
*1178 FILLER_24_141
*1179 FILLER_24_15
*1180 FILLER_24_167
*1181 FILLER_24_179
*1182 FILLER_24_185
*1183 FILLER_24_194
*1184 FILLER_24_219
*1185 FILLER_24_251
*1186 FILLER_24_27
*1187 FILLER_24_273
*1188 FILLER_24_285
*1189 FILLER_24_29
*1190 FILLER_24_295
*1191 FILLER_24_3
*1192 FILLER_24_41
*1193 FILLER_24_53
*1194 FILLER_24_65
*1195 FILLER_24_77
*1196 FILLER_24_83
*1197 FILLER_25_109
*1198 FILLER_25_121
*1199 FILLER_25_131
*1200 FILLER_25_142
*1201 FILLER_25_15
*1202 FILLER_25_177
*1203 FILLER_25_181
*1204 FILLER_25_210
*1205 FILLER_25_214
*1206 FILLER_25_221
*1207 FILLER_25_245
*1208 FILLER_25_257
*1209 FILLER_25_27
*1210 FILLER_25_278
*1211 FILLER_25_281
*1212 FILLER_25_293
*1213 FILLER_25_3
*1214 FILLER_25_57
*1215 FILLER_25_69
*1216 FILLER_25_80
*1217 FILLER_25_97
*1218 FILLER_26_103
*1219 FILLER_26_139
*1220 FILLER_26_141
*1221 FILLER_26_15
*1222 FILLER_26_165
*1223 FILLER_26_177
*1224 FILLER_26_193
*1225 FILLER_26_197
*1226 FILLER_26_209
*1227 FILLER_26_221
*1228 FILLER_26_235
*1229 FILLER_26_247
*1230 FILLER_26_251
*1231 FILLER_26_253
*1232 FILLER_26_27
*1233 FILLER_26_29
*1234 FILLER_26_292
*1235 FILLER_26_296
*1236 FILLER_26_3
*1237 FILLER_26_41
*1238 FILLER_26_47
*1239 FILLER_26_62
*1240 FILLER_26_74
*1241 FILLER_26_82
*1242 FILLER_26_85
*1243 FILLER_26_91
*1244 FILLER_27_100
*1245 FILLER_27_113
*1246 FILLER_27_143
*1247 FILLER_27_15
*1248 FILLER_27_151
*1249 FILLER_27_158
*1250 FILLER_27_166
*1251 FILLER_27_183
*1252 FILLER_27_200
*1253 FILLER_27_214
*1254 FILLER_27_222
*1255 FILLER_27_225
*1256 FILLER_27_234
*1257 FILLER_27_240
*1258 FILLER_27_252
*1259 FILLER_27_260
*1260 FILLER_27_267
*1261 FILLER_27_27
*1262 FILLER_27_279
*1263 FILLER_27_281
*1264 FILLER_27_295
*1265 FILLER_27_3
*1266 FILLER_27_39
*1267 FILLER_27_43
*1268 FILLER_27_54
*1269 FILLER_27_57
*1270 FILLER_27_65
*1271 FILLER_27_77
*1272 FILLER_28_113
*1273 FILLER_28_125
*1274 FILLER_28_137
*1275 FILLER_28_141
*1276 FILLER_28_153
*1277 FILLER_28_161
*1278 FILLER_28_169
*1279 FILLER_28_217
*1280 FILLER_28_246
*1281 FILLER_28_270
*1282 FILLER_28_296
*1283 FILLER_28_3
*1284 FILLER_28_54
*1285 FILLER_28_58
*1286 FILLER_28_66
*1287 FILLER_28_7
*1288 FILLER_28_78
*1289 FILLER_28_85
*1290 FILLER_28_89
*1291 FILLER_29_108
*1292 FILLER_29_123
*1293 FILLER_29_135
*1294 FILLER_29_158
*1295 FILLER_29_165
*1296 FILLER_29_169
*1297 FILLER_29_173
*1298 FILLER_29_179
*1299 FILLER_29_196
*1300 FILLER_29_202
*1301 FILLER_29_208
*1302 FILLER_29_220
*1303 FILLER_29_225
*1304 FILLER_29_232
*1305 FILLER_29_250
*1306 FILLER_29_259
*1307 FILLER_29_269
*1308 FILLER_29_277
*1309 FILLER_29_281
*1310 FILLER_29_293
*1311 FILLER_29_3
*1312 FILLER_29_54
*1313 FILLER_29_57
*1314 FILLER_29_69
*1315 FILLER_2_117
*1316 FILLER_2_138
*1317 FILLER_2_149
*1318 FILLER_2_15
*1319 FILLER_2_183
*1320 FILLER_2_189
*1321 FILLER_2_213
*1322 FILLER_2_245
*1323 FILLER_2_251
*1324 FILLER_2_253
*1325 FILLER_2_260
*1326 FILLER_2_27
*1327 FILLER_2_29
*1328 FILLER_2_296
*1329 FILLER_2_3
*1330 FILLER_2_37
*1331 FILLER_2_75
*1332 FILLER_2_83
*1333 FILLER_2_85
*1334 FILLER_2_89
*1335 FILLER_30_107
*1336 FILLER_30_139
*1337 FILLER_30_15
*1338 FILLER_30_151
*1339 FILLER_30_180
*1340 FILLER_30_197
*1341 FILLER_30_209
*1342 FILLER_30_238
*1343 FILLER_30_249
*1344 FILLER_30_253
*1345 FILLER_30_259
*1346 FILLER_30_27
*1347 FILLER_30_271
*1348 FILLER_30_29
*1349 FILLER_30_292
*1350 FILLER_30_296
*1351 FILLER_30_3
*1352 FILLER_30_33
*1353 FILLER_30_42
*1354 FILLER_30_59
*1355 FILLER_30_71
*1356 FILLER_30_83
*1357 FILLER_30_95
*1358 FILLER_31_102
*1359 FILLER_31_108
*1360 FILLER_31_113
*1361 FILLER_31_139
*1362 FILLER_31_15
*1363 FILLER_31_151
*1364 FILLER_31_160
*1365 FILLER_31_165
*1366 FILLER_31_169
*1367 FILLER_31_194
*1368 FILLER_31_222
*1369 FILLER_31_249
*1370 FILLER_31_263
*1371 FILLER_31_27
*1372 FILLER_31_275
*1373 FILLER_31_279
*1374 FILLER_31_281
*1375 FILLER_31_3
*1376 FILLER_31_55
*1377 FILLER_31_57
*1378 FILLER_31_69
*1379 FILLER_31_90
*1380 FILLER_32_103
*1381 FILLER_32_111
*1382 FILLER_32_120
*1383 FILLER_32_139
*1384 FILLER_32_144
*1385 FILLER_32_15
*1386 FILLER_32_156
*1387 FILLER_32_161
*1388 FILLER_32_169
*1389 FILLER_32_178
*1390 FILLER_32_189
*1391 FILLER_32_195
*1392 FILLER_32_205
*1393 FILLER_32_215
*1394 FILLER_32_223
*1395 FILLER_32_232
*1396 FILLER_32_259
*1397 FILLER_32_27
*1398 FILLER_32_280
*1399 FILLER_32_29
*1400 FILLER_32_3
*1401 FILLER_32_41
*1402 FILLER_32_53
*1403 FILLER_32_61
*1404 FILLER_32_70
*1405 FILLER_32_91
*1406 FILLER_33_101
*1407 FILLER_33_109
*1408 FILLER_33_113
*1409 FILLER_33_119
*1410 FILLER_33_124
*1411 FILLER_33_145
*1412 FILLER_33_15
*1413 FILLER_33_167
*1414 FILLER_33_169
*1415 FILLER_33_173
*1416 FILLER_33_181
*1417 FILLER_33_205
*1418 FILLER_33_223
*1419 FILLER_33_225
*1420 FILLER_33_235
*1421 FILLER_33_263
*1422 FILLER_33_271
*1423 FILLER_33_3
*1424 FILLER_33_54
*1425 FILLER_33_57
*1426 FILLER_33_63
*1427 FILLER_33_71
*1428 FILLER_33_93
*1429 FILLER_34_129
*1430 FILLER_34_137
*1431 FILLER_34_141
*1432 FILLER_34_15
*1433 FILLER_34_163
*1434 FILLER_34_175
*1435 FILLER_34_184
*1436 FILLER_34_203
*1437 FILLER_34_264
*1438 FILLER_34_27
*1439 FILLER_34_29
*1440 FILLER_34_296
*1441 FILLER_34_3
*1442 FILLER_34_41
*1443 FILLER_34_49
*1444 FILLER_34_62
*1445 FILLER_34_74
*1446 FILLER_35_139
*1447 FILLER_35_15
*1448 FILLER_35_169
*1449 FILLER_35_181
*1450 FILLER_35_193
*1451 FILLER_35_223
*1452 FILLER_35_234
*1453 FILLER_35_255
*1454 FILLER_35_27
*1455 FILLER_35_276
*1456 FILLER_35_3
*1457 FILLER_35_33
*1458 FILLER_35_57
*1459 FILLER_35_91
*1460 FILLER_36_104
*1461 FILLER_36_108
*1462 FILLER_36_115
*1463 FILLER_36_141
*1464 FILLER_36_15
*1465 FILLER_36_170
*1466 FILLER_36_237
*1467 FILLER_36_250
*1468 FILLER_36_253
*1469 FILLER_36_27
*1470 FILLER_36_29
*1471 FILLER_36_294
*1472 FILLER_36_3
*1473 FILLER_36_52
*1474 FILLER_36_92
*1475 FILLER_37_100
*1476 FILLER_37_113
*1477 FILLER_37_121
*1478 FILLER_37_129
*1479 FILLER_37_15
*1480 FILLER_37_166
*1481 FILLER_37_177
*1482 FILLER_37_189
*1483 FILLER_37_201
*1484 FILLER_37_211
*1485 FILLER_37_223
*1486 FILLER_37_233
*1487 FILLER_37_239
*1488 FILLER_37_27
*1489 FILLER_37_3
*1490 FILLER_37_39
*1491 FILLER_37_51
*1492 FILLER_37_55
*1493 FILLER_37_57
*1494 FILLER_37_65
*1495 FILLER_37_71
*1496 FILLER_37_76
*1497 FILLER_37_88
*1498 FILLER_38_105
*1499 FILLER_38_112
*1500 FILLER_38_124
*1501 FILLER_38_136
*1502 FILLER_38_141
*1503 FILLER_38_149
*1504 FILLER_38_15
*1505 FILLER_38_155
*1506 FILLER_38_167
*1507 FILLER_38_195
*1508 FILLER_38_197
*1509 FILLER_38_208
*1510 FILLER_38_220
*1511 FILLER_38_232
*1512 FILLER_38_244
*1513 FILLER_38_253
*1514 FILLER_38_265
*1515 FILLER_38_27
*1516 FILLER_38_29
*1517 FILLER_38_296
*1518 FILLER_38_3
*1519 FILLER_38_41
*1520 FILLER_38_53
*1521 FILLER_38_65
*1522 FILLER_38_77
*1523 FILLER_38_83
*1524 FILLER_38_85
*1525 FILLER_38_97
*1526 FILLER_39_101
*1527 FILLER_39_113
*1528 FILLER_39_123
*1529 FILLER_39_135
*1530 FILLER_39_147
*1531 FILLER_39_15
*1532 FILLER_39_166
*1533 FILLER_39_172
*1534 FILLER_39_178
*1535 FILLER_39_225
*1536 FILLER_39_231
*1537 FILLER_39_235
*1538 FILLER_39_247
*1539 FILLER_39_259
*1540 FILLER_39_268
*1541 FILLER_39_27
*1542 FILLER_39_274
*1543 FILLER_39_281
*1544 FILLER_39_3
*1545 FILLER_39_39
*1546 FILLER_39_51
*1547 FILLER_39_55
*1548 FILLER_39_57
*1549 FILLER_39_69
*1550 FILLER_39_81
*1551 FILLER_39_89
*1552 FILLER_3_109
*1553 FILLER_3_113
*1554 FILLER_3_123
*1555 FILLER_3_147
*1556 FILLER_3_15
*1557 FILLER_3_159
*1558 FILLER_3_178
*1559 FILLER_3_217
*1560 FILLER_3_223
*1561 FILLER_3_225
*1562 FILLER_3_237
*1563 FILLER_3_258
*1564 FILLER_3_27
*1565 FILLER_3_279
*1566 FILLER_3_295
*1567 FILLER_3_3
*1568 FILLER_3_39
*1569 FILLER_3_70
*1570 FILLER_3_78
*1571 FILLER_3_97
*1572 FILLER_40_105
*1573 FILLER_40_132
*1574 FILLER_40_141
*1575 FILLER_40_15
*1576 FILLER_40_170
*1577 FILLER_40_253
*1578 FILLER_40_27
*1579 FILLER_40_272
*1580 FILLER_40_29
*1581 FILLER_40_296
*1582 FILLER_40_3
*1583 FILLER_40_41
*1584 FILLER_40_53
*1585 FILLER_40_61
*1586 FILLER_40_83
*1587 FILLER_41_108
*1588 FILLER_41_140
*1589 FILLER_41_15
*1590 FILLER_41_185
*1591 FILLER_41_189
*1592 FILLER_41_198
*1593 FILLER_41_241
*1594 FILLER_41_253
*1595 FILLER_41_257
*1596 FILLER_41_27
*1597 FILLER_41_278
*1598 FILLER_41_284
*1599 FILLER_41_291
*1600 FILLER_41_3
*1601 FILLER_41_35
*1602 FILLER_41_57
*1603 FILLER_41_70
*1604 FILLER_41_93
*1605 FILLER_42_130
*1606 FILLER_42_141
*1607 FILLER_42_15
*1608 FILLER_42_173
*1609 FILLER_42_185
*1610 FILLER_42_193
*1611 FILLER_42_217
*1612 FILLER_42_222
*1613 FILLER_42_244
*1614 FILLER_42_27
*1615 FILLER_42_284
*1616 FILLER_42_29
*1617 FILLER_42_296
*1618 FILLER_42_3
*1619 FILLER_42_64
*1620 FILLER_43_107
*1621 FILLER_43_111
*1622 FILLER_43_121
*1623 FILLER_43_133
*1624 FILLER_43_145
*1625 FILLER_43_15
*1626 FILLER_43_153
*1627 FILLER_43_166
*1628 FILLER_43_177
*1629 FILLER_43_189
*1630 FILLER_43_201
*1631 FILLER_43_209
*1632 FILLER_43_220
*1633 FILLER_43_245
*1634 FILLER_43_269
*1635 FILLER_43_27
*1636 FILLER_43_277
*1637 FILLER_43_281
*1638 FILLER_43_293
*1639 FILLER_43_3
*1640 FILLER_43_39
*1641 FILLER_43_47
*1642 FILLER_43_51
*1643 FILLER_43_55
*1644 FILLER_43_57
*1645 FILLER_43_69
*1646 FILLER_43_75
*1647 FILLER_43_80
*1648 FILLER_43_88
*1649 FILLER_43_95
*1650 FILLER_44_109
*1651 FILLER_44_121
*1652 FILLER_44_133
*1653 FILLER_44_139
*1654 FILLER_44_141
*1655 FILLER_44_15
*1656 FILLER_44_153
*1657 FILLER_44_165
*1658 FILLER_44_177
*1659 FILLER_44_189
*1660 FILLER_44_195
*1661 FILLER_44_197
*1662 FILLER_44_209
*1663 FILLER_44_221