*SPEF "ieee 1481-1999"
*DESIGN "calculator_top"
*DATE "20:50:33 Sunday May 25, 2025"
*VENDOR "The OpenROAD Project"
*PROGRAM "OpenROAD"
*VERSION "edf00dff99f6c40d67a30c0e22a8191c5d2ed9d6"
*DESIGN_FLOW "NAME_SCOPE LOCAL" "PIN_CAP NONE"
*DIVIDER /
*DELIMITER :
*BUS_DELIMITER []
*T_UNIT 1 NS
*C_UNIT 1 PF
*R_UNIT 1 OHM
*L_UNIT 1 HENRY

*NAME_MAP
*1 ColOut[0]
*2 ColOut[1]
*3 ColOut[2]
*4 ColOut[3]
*5 RowIn[0]
*6 RowIn[1]
*7 RowIn[2]
*8 RowIn[3]
*11 clk
*12 complete
*13 display_output[0]
*14 display_output[10]
*15 display_output[11]
*16 display_output[12]
*17 display_output[13]
*18 display_output[14]
*19 display_output[15]
*20 display_output[1]
*21 display_output[2]
*22 display_output[3]
*23 display_output[4]
*24 display_output[5]
*25 display_output[6]
*26 display_output[7]
*27 display_output[8]
*28 display_output[9]
*29 input_state_FPGA[0]
*30 input_state_FPGA[1]
*31 input_state_FPGA[2]
*32 key_pressed
*33 nRST
*34 _0000_
*35 _0001_
*36 _0002_
*37 _0003_
*38 _0004_
*39 _0005_
*40 _0006_
*41 _0007_
*42 _0008_
*43 _0009_
*44 _0010_
*45 _0011_
*46 _0012_
*47 _0013_
*48 _0014_
*49 _0015_
*50 _0016_
*51 _0017_
*52 _0018_
*53 _0019_
*54 _0020_
*55 _0021_
*56 _0022_
*57 _0023_
*58 _0024_
*59 _0025_
*60 _0026_
*61 _0027_
*62 _0028_
*63 _0029_
*64 _0030_
*65 _0031_
*66 _0032_
*67 _0033_
*68 _0034_
*69 _0035_
*70 _0036_
*71 _0037_
*72 _0038_
*73 _0039_
*74 _0040_
*75 _0041_
*76 _0042_
*77 _0043_
*78 _0044_
*79 _0045_
*80 _0046_
*81 _0047_
*82 _0048_
*83 _0049_
*84 _0050_
*85 _0051_
*86 _0052_
*87 _0053_
*88 _0054_
*89 _0055_
*90 _0056_
*91 _0057_
*92 _0058_
*93 _0059_
*94 _0060_
*95 _0061_
*96 _0062_
*97 _0063_
*98 _0064_
*99 _0065_
*100 _0066_
*101 _0067_
*102 _0068_
*103 _0069_
*104 _0070_
*105 _0071_
*106 _0072_
*107 _0073_
*108 _0074_
*109 _0075_
*110 _0076_
*111 _0077_
*112 _0078_
*113 _0079_
*114 _0080_
*115 _0081_
*116 _0082_
*117 _0083_
*118 _0084_
*119 _0085_
*120 _0086_
*121 _0087_
*122 _0088_
*123 _0089_
*124 _0090_
*125 _0091_
*126 _0092_
*127 _0093_
*128 _0094_
*129 _0095_
*130 _0096_
*131 _0097_
*132 _0098_
*133 _0099_
*134 _0100_
*135 _0101_
*136 _0102_
*137 _0103_
*138 _0104_
*139 _0105_
*140 _0106_
*141 _0107_
*142 _0108_
*143 _0109_
*144 _0110_
*145 _0111_
*146 _0112_
*147 _0113_
*148 _0114_
*149 _0115_
*150 _0116_
*151 _0117_
*152 _0118_
*153 _0119_
*154 _0120_
*155 _0121_
*156 _0122_
*157 _0123_
*158 _0124_
*159 _0125_
*160 _0126_
*161 _0127_
*162 _0128_
*163 _0129_
*164 _0130_
*165 _0131_
*166 _0132_
*167 _0133_
*168 _0134_
*169 _0135_
*170 _0136_
*171 _0137_
*172 _0138_
*173 _0139_
*174 _0140_
*175 _0141_
*176 _0142_
*177 _0143_
*178 _0144_
*179 _0145_
*180 _0146_
*181 _0147_
*182 _0148_
*183 _0149_
*184 _0150_
*185 _0151_
*186 _0152_
*187 _0153_
*188 _0154_
*189 _0155_
*190 _0156_
*191 _0157_
*192 _0158_
*193 _0159_
*194 _0160_
*195 _0161_
*196 _0162_
*197 _0163_
*198 _0164_
*199 _0165_
*200 _0166_
*201 _0167_
*202 _0168_
*203 _0169_
*204 _0170_
*205 _0171_
*206 _0172_
*207 _0173_
*208 _0174_
*209 _0175_
*210 _0176_
*211 _0177_
*212 _0178_
*213 _0179_
*214 _0180_
*215 _0181_
*216 _0182_
*217 _0183_
*218 _0184_
*219 _0185_
*220 _0186_
*221 _0187_
*222 _0188_
*223 _0189_
*224 _0190_
*225 _0191_
*226 _0192_
*227 _0193_
*228 _0194_
*229 _0195_
*230 _0196_
*231 _0197_
*232 _0198_
*233 _0199_
*234 _0200_
*235 _0201_
*236 _0202_
*237 _0203_
*238 _0204_
*239 _0205_
*240 _0206_
*241 _0207_
*242 _0208_
*243 _0209_
*244 _0210_
*245 _0211_
*246 _0212_
*247 _0213_
*248 _0214_
*249 _0215_
*250 _0216_
*251 _0217_
*252 _0218_
*253 _0219_
*254 _0220_
*255 _0221_
*256 _0222_
*257 _0223_
*258 _0224_
*259 _0225_
*260 _0226_
*261 _0227_
*262 _0228_
*263 _0229_
*264 _0230_
*265 _0231_
*266 _0232_
*267 _0233_
*268 _0234_
*269 _0235_
*270 _0236_
*271 _0237_
*272 _0238_
*273 _0239_
*274 _0240_
*275 _0241_
*276 _0242_
*277 _0243_
*278 _0244_
*279 _0245_
*280 _0246_
*281 _0247_
*282 _0248_
*283 _0249_
*284 _0250_
*285 _0251_
*286 _0252_
*287 _0253_
*288 _0254_
*289 _0255_
*290 _0256_
*291 _0257_
*292 _0258_
*293 _0259_
*294 _0260_
*295 _0261_
*296 _0262_
*297 _0263_
*298 _0264_
*299 _0265_
*300 _0266_
*301 _0267_
*302 _0268_
*303 _0269_
*304 _0270_
*305 _0271_
*306 _0272_
*307 _0273_
*308 _0274_
*309 _0275_
*310 _0276_
*311 _0277_
*312 _0278_
*313 _0279_
*314 _0280_
*315 _0281_
*316 _0282_
*317 _0283_
*318 _0284_
*319 _0285_
*320 _0286_
*321 _0287_
*322 _0288_
*323 _0289_
*324 _0290_
*325 _0291_
*326 _0292_
*327 _0293_
*328 _0294_
*329 _0295_
*330 _0296_
*331 _0297_
*332 _0298_
*333 _0299_
*334 _0300_
*335 _0301_
*336 _0302_
*337 _0303_
*338 _0304_
*339 _0305_
*340 _0306_
*341 _0307_
*342 _0308_
*343 _0309_
*344 _0310_
*345 _0311_
*346 _0312_
*347 _0313_
*348 _0314_
*349 _0315_
*350 _0316_
*351 _0317_
*352 _0318_
*353 _0319_
*354 _0320_
*355 _0321_
*356 _0322_
*357 _0323_
*358 _0324_
*359 _0325_
*360 _0326_
*361 _0327_
*362 _0328_
*363 _0329_
*364 _0330_
*365 _0331_
*366 _0332_
*367 _0333_
*368 _0334_
*369 _0335_
*370 _0336_
*371 _0337_
*372 _0338_
*373 _0339_
*374 _0340_
*375 _0341_
*376 _0342_
*377 _0343_
*378 _0344_
*379 _0345_
*380 _0346_
*381 _0347_
*382 _0348_
*383 _0349_
*384 _0350_
*385 _0351_
*386 _0352_
*387 _0353_
*388 _0354_
*389 _0355_
*390 _0356_
*391 _0357_
*392 _0358_
*393 _0359_
*394 _0360_
*395 _0361_
*396 _0362_
*397 _0363_
*398 _0364_
*399 _0365_
*400 _0366_
*401 _0367_
*402 _0368_
*403 _0369_
*404 _0370_
*405 _0371_
*406 _0372_
*407 _0373_
*408 _0374_
*409 _0375_
*410 _0376_
*411 _0377_
*412 _0378_
*413 _0379_
*414 _0380_
*415 _0381_
*416 _0382_
*417 _0383_
*418 _0384_
*419 _0385_
*420 _0386_
*421 _0387_
*422 _0388_
*423 _0389_
*424 _0390_
*425 _0391_
*426 _0392_
*427 _0393_
*428 _0394_
*429 _0395_
*430 _0396_
*431 _0397_
*432 _0398_
*433 _0399_
*434 _0400_
*435 _0401_
*436 _0402_
*437 _0403_
*438 _0404_
*439 _0405_
*440 _0406_
*441 _0407_
*442 _0408_
*443 _0409_
*444 _0410_
*445 _0411_
*446 _0412_
*447 _0413_
*448 _0414_
*449 _0415_
*450 _0416_
*451 _0417_
*452 _0418_
*453 _0419_
*454 _0420_
*455 _0421_
*456 _0422_
*457 _0423_
*458 _0424_
*459 _0425_
*460 _0426_
*461 _0427_
*462 _0428_
*463 _0429_
*464 _0430_
*465 _0431_
*466 _0432_
*467 _0433_
*468 _0434_
*469 _0435_
*470 _0436_
*471 _0437_
*472 _0438_
*473 _0439_
*474 _0440_
*475 _0441_
*476 _0442_
*477 _0443_
*478 _0444_
*479 _0445_
*480 _0446_
*481 _0447_
*482 _0448_
*483 _0449_
*484 _0450_
*485 _0451_
*486 _0452_
*487 _0453_
*488 _0454_
*489 _0455_
*490 _0456_
*491 _0457_
*492 _0458_
*493 _0459_
*494 _0460_
*495 _0461_
*496 _0462_
*497 _0463_
*498 _0464_
*499 _0465_
*500 _0466_
*501 _0467_
*502 _0468_
*503 _0469_
*504 _0470_
*505 _0471_
*506 _0472_
*507 _0473_
*508 _0474_
*509 _0475_
*510 _0476_
*511 _0477_
*512 _0478_
*513 _0479_
*514 _0480_
*515 _0481_
*516 _0482_
*517 _0483_
*518 _0484_
*519 _0485_
*520 _0486_
*521 _0487_
*522 _0488_
*523 _0489_
*524 _0490_
*525 _0491_
*526 _0492_
*527 _0493_
*528 _0494_
*529 _0495_
*530 _0496_
*531 _0497_
*532 _0498_
*533 _0499_
*534 _0500_
*535 _0501_
*536 _0502_
*537 _0503_
*538 _0504_
*539 _0505_
*540 _0506_
*541 _0507_
*542 _0508_
*543 _0509_
*544 _0510_
*545 _0511_
*546 _0512_
*547 _0513_
*548 _0514_
*549 _0515_
*550 _0516_
*551 _0517_
*552 _0518_
*553 _0519_
*554 _0520_
*555 _0521_
*556 _0522_
*557 _0523_
*558 _0524_
*559 _0525_
*560 _0526_
*561 _0527_
*562 _0528_
*563 _0529_
*564 _0530_
*565 _0531_
*566 _0532_
*567 _0533_
*568 _0534_
*569 _0535_
*570 _0536_
*571 _0537_
*572 _0538_
*573 _0539_
*574 _0540_
*575 _0541_
*576 _0542_
*577 _0543_
*578 _0544_
*579 _0545_
*580 _0546_
*581 _0547_
*582 _0548_
*583 _0549_
*584 _0550_
*585 _0551_
*586 _0552_
*587 _0553_
*588 _0554_
*589 _0555_
*590 _0556_
*591 _0557_
*592 _0558_
*593 _0559_
*594 _0560_
*595 _0561_
*596 _0562_
*597 _0563_
*598 _0564_
*599 _0565_
*600 _0566_
*601 _0567_
*602 _0568_
*603 _0569_
*604 _0570_
*605 _0571_
*606 _0572_
*607 _0573_
*608 _0574_
*609 _0575_
*610 _0576_
*611 _0577_
*612 _0578_
*613 _0579_
*614 _0580_
*615 _0581_
*616 _0582_
*617 _0583_
*618 _0584_
*619 _0585_
*620 _0586_
*621 _0587_
*622 _0588_
*623 _0589_
*624 _0590_
*625 _0591_
*626 _0592_
*627 _0593_
*628 _0594_
*629 _0595_
*630 _0596_
*631 _0597_
*632 _0598_
*633 _0599_
*634 _0600_
*635 _0601_
*636 _0602_
*637 _0603_
*638 _0604_
*639 _0605_
*640 _0606_
*641 _0607_
*642 _0608_
*643 _0609_
*644 _0610_
*645 _0611_
*646 _0612_
*647 _0613_
*648 _0614_
*649 _0615_
*650 _0616_
*651 _0617_
*652 _0618_
*653 _0619_
*654 _0620_
*655 _0621_
*656 _0622_
*657 _0623_
*658 _0624_
*659 _0625_
*660 _0626_
*661 _0627_
*662 _0628_
*663 _0629_
*664 _0630_
*665 _0631_
*666 _0632_
*667 _0633_
*668 _0634_
*669 _0635_
*670 _0636_
*671 _0637_
*672 _0638_
*673 _0639_
*674 _0640_
*675 _0641_
*676 _0642_
*677 _0643_
*678 _0644_
*679 _0645_
*680 _0646_
*681 _0647_
*682 _0648_
*683 _0649_
*684 _0650_
*685 _0651_
*686 _0652_
*687 _0653_
*688 _0654_
*689 _0655_
*690 _0656_
*691 _0657_
*692 _0658_
*693 _0659_
*694 _0660_
*695 _0661_
*696 _0662_
*697 _0663_
*698 _0664_
*699 _0665_
*700 _0666_
*701 _0667_
*702 _0668_
*703 _0669_
*704 _0670_
*705 _0671_
*706 _0672_
*707 _0673_
*708 _0674_
*709 _0675_
*710 _0676_
*711 _0677_
*712 _0678_
*713 _0679_
*714 _0680_
*715 _0681_
*716 _0682_
*717 _0683_
*718 _0684_
*719 _0685_
*720 _0686_
*721 _0687_
*722 _0688_
*723 _0689_
*724 _0690_
*725 _0691_
*726 _0692_
*727 _0693_
*728 _0694_
*729 _0695_
*730 _0696_
*731 _0697_
*732 _0698_
*733 _0699_
*734 _0700_
*735 _0701_
*736 _0702_
*737 _0703_
*738 _0704_
*739 _0705_
*740 _0706_
*741 _0707_
*742 _0708_
*743 _0709_
*744 _0710_
*745 _0711_
*746 _0712_
*747 _0713_
*748 _0714_
*749 _0715_
*750 _0716_
*751 _0717_
*752 _0718_
*753 _0719_
*754 _0720_
*755 _0721_
*756 _0722_
*757 _0723_
*758 _0724_
*759 _0725_
*760 _0726_
*761 _0727_
*762 _0728_
*763 _0729_
*764 _0730_
*765 _0731_
*766 _0732_
*767 _0733_
*768 _0734_
*769 _0735_
*770 _0736_
*771 _0737_
*772 _0738_
*773 _0739_
*774 _0740_
*775 _0741_
*776 _0742_
*777 _0743_
*778 _0744_
*779 _0745_
*780 _0746_
*781 _0747_
*782 _0748_
*783 _0749_
*784 _0750_
*785 _0751_
*786 _0752_
*787 _0753_
*788 _0754_
*789 _0755_
*790 _0756_
*791 _0757_
*792 _0758_
*793 _0759_
*794 _0760_
*795 _0761_
*796 _0762_
*797 _0763_
*798 _0764_
*799 _0765_
*800 _0766_
*801 _0767_
*802 _0768_
*803 _0769_
*804 _0770_
*805 _0771_
*806 _0772_
*807 _0773_
*808 _0774_
*809 _0775_
*810 _0776_
*811 _0777_
*812 _0778_
*813 _0779_
*814 _0780_
*815 _0781_
*816 _0782_
*817 _0783_
*818 _0784_
*819 _0785_
*820 _0786_
*821 _0787_
*822 _0788_
*823 _0789_
*824 _0790_
*825 _0791_
*826 _0792_
*827 _0793_
*828 _0794_
*829 _0795_
*830 _0796_
*831 _0797_
*832 _0798_
*833 _0799_
*834 _0800_
*835 _0801_
*836 _0802_
*837 _0803_
*838 _0804_
*839 _0805_
*840 _0806_
*841 _0807_
*842 _0808_
*843 _0809_
*844 _0810_
*845 _0811_
*846 _0812_
*847 _0813_
*848 _0814_
*849 _0815_
*850 _0816_
*851 _0817_
*852 _0818_
*853 _0819_
*854 _0820_
*855 _0821_
*856 _0822_
*857 _0823_
*858 _0824_
*859 _0825_
*860 _0826_
*861 _0827_
*862 _0828_
*863 _0829_
*864 _0830_
*865 _0831_
*866 _0832_
*867 _0833_
*868 _0834_
*869 _0835_
*870 _0836_
*871 _0837_
*872 _0838_
*873 _0839_
*874 _0840_
*875 _0841_
*876 _0842_
*877 _0843_
*878 _0844_
*879 _0845_
*880 _0846_
*881 _0847_
*882 _0848_
*883 _0849_
*884 _0850_
*885 _0851_
*886 _0852_
*887 _0853_
*888 _0854_
*889 _0855_
*890 _0856_
*891 _0857_
*892 _0858_
*893 _0859_
*894 _0860_
*895 _0861_
*896 _0862_
*897 _0863_
*898 _0864_
*899 _0865_
*900 _0866_
*901 _0867_
*902 _0868_
*903 _0869_
*904 _0870_
*905 _0871_
*906 _0872_
*907 _0873_
*908 _0874_
*909 _0875_
*910 _0876_
*911 _0877_
*912 _0878_
*913 _0879_
*914 _0880_
*915 _0881_
*916 _0882_
*917 _0883_
*918 _0884_
*919 _0885_
*920 _0886_
*921 _0887_
*922 _0888_
*923 _0889_
*924 _0890_
*925 _0891_
*926 _0892_
*927 _0893_
*928 _0894_
*929 _0895_
*930 _0896_
*931 _0897_
*932 _0898_
*933 _0899_
*934 _0900_
*935 _0901_
*936 _0902_
*937 _0903_
*938 _0904_
*939 _0905_
*940 _0906_
*941 _0907_
*942 _0908_
*943 _0909_
*944 _0910_
*945 _0911_
*946 _0912_
*947 _0913_
*948 _0914_
*949 _0915_
*950 _0916_
*951 _0917_
*952 _0918_
*953 _0919_
*954 _0920_
*955 _0921_
*956 _0922_
*957 _0923_
*958 _0924_
*959 _0925_
*960 _0926_
*961 _0927_
*962 _0928_
*963 _0929_
*964 _0930_
*965 _0931_
*966 _0932_
*967 _0933_
*968 _0934_
*969 _0935_
*970 _0936_
*971 _0937_
*972 _0938_
*973 _0939_
*974 _0940_
*975 _0941_
*976 _0942_
*977 _0943_
*978 _0944_
*979 _0945_
*980 _0946_
*981 _0947_
*982 _0948_
*983 _0949_
*984 _0950_
*985 _0951_
*986 _0952_
*987 _0953_
*988 _0954_
*989 _0955_
*990 _0956_
*991 _0957_
*992 _0958_
*993 _0959_
*994 _0960_
*995 _0961_
*996 _0962_
*997 _0963_
*998 _0964_
*999 _0965_
*1000 _0966_
*1001 _0967_
*1002 _0968_
*1003 _0969_
*1004 _0970_
*1005 _0971_
*1006 _0972_
*1007 _0973_
*1008 _0974_
*1009 _0975_
*1010 _0976_
*1011 _0977_
*1012 _0978_
*1013 _0979_
*1014 _0980_
*1015 _0981_
*1016 _0982_
*1017 _0983_
*1018 _0984_
*1019 _0985_
*1020 _0986_
*1021 _0987_
*1022 _0988_
*1023 _0989_
*1024 _0990_
*1025 _0991_
*1026 _0992_
*1027 _0993_
*1028 _0994_
*1029 _0995_
*1030 _0996_
*1031 _0997_
*1032 _0998_
*1033 _0999_
*1034 _1000_
*1035 _1001_
*1036 _1002_
*1037 _1003_
*1038 _1004_
*1039 _1005_
*1040 _1006_
*1041 _1007_
*1042 _1008_
*1043 _1009_
*1044 _1010_
*1045 _1011_
*1046 _1012_
*1047 _1013_
*1048 _1014_
*1049 _1015_
*1050 _1016_
*1051 _1017_
*1052 _1018_
*1053 _1019_
*1054 _1020_
*1055 _1021_
*1056 _1022_
*1057 _1023_
*1058 _1024_
*1059 _1025_
*1060 _1026_
*1061 _1027_
*1062 _1028_
*1063 _1029_
*1064 _1030_
*1065 _1031_
*1066 _1032_
*1067 _1033_
*1068 _1034_
*1069 _1035_
*1070 _1036_
*1071 _1037_
*1072 _1038_
*1073 _1039_
*1074 _1040_
*1075 _1041_
*1076 _1042_
*1077 _1043_
*1078 _1044_
*1079 _1045_
*1080 _1046_
*1081 _1047_
*1082 _1048_
*1083 _1049_
*1084 _1050_
*1085 _1051_
*1086 _1052_
*1087 _1053_
*1088 _1054_
*1089 _1055_
*1090 _1056_
*1091 _1057_
*1092 _1058_
*1093 _1059_
*1094 _1060_
*1095 _1061_
*1096 _1062_
*1097 _1063_
*1098 _1064_
*1099 _1065_
*1100 _1066_
*1101 _1067_
*1102 _1068_
*1103 _1069_
*1104 _1070_
*1105 _1071_
*1106 _1072_
*1107 _1073_
*1108 _1074_
*1109 _1075_
*1110 _1076_
*1111 _1077_
*1112 _1078_
*1113 _1079_
*1114 _1080_
*1115 _1081_
*1116 _1082_
*1117 _1083_
*1118 _1084_
*1119 _1085_
*1120 _1086_
*1121 _1087_
*1122 _1088_
*1123 _1089_
*1124 _1090_
*1125 _1091_
*1126 _1092_
*1127 _1093_
*1128 _1094_
*1129 _1095_
*1130 _1096_
*1131 _1097_
*1132 _1098_
*1133 _1099_
*1134 _1100_
*1135 _1101_
*1136 _1102_
*1137 _1103_
*1138 _1104_
*1139 _1105_
*1140 _1106_
*1141 _1107_
*1142 _1108_
*1143 _1109_
*1144 _1110_
*1145 _1111_
*1146 _1112_
*1147 _1113_
*1148 _1114_
*1149 _1115_
*1150 _1116_
*1151 _1117_
*1152 _1118_
*1153 _1119_
*1154 _1120_
*1155 _1121_
*1156 _1122_
*1157 _1123_
*1158 _1124_
*1159 _1125_
*1160 _1126_
*1161 _1127_
*1162 _1128_
*1163 _1129_
*1164 _1130_
*1165 _1131_
*1166 _1132_
*1167 _1133_
*1168 _1134_
*1169 _1135_
*1170 _1136_
*1171 _1137_
*1172 _1138_
*1173 _1139_
*1174 _1140_
*1175 _1141_
*1176 _1142_
*1177 _1143_
*1178 _1144_
*1179 _1145_
*1180 _1146_
*1181 _1147_
*1182 _1148_
*1183 _1149_
*1184 _1150_
*1185 _1151_
*1186 _1152_
*1187 _1153_
*1188 _1154_
*1189 _1155_
*1190 _1156_
*1191 _1157_
*1192 _1158_
*1193 _1159_
*1194 _1160_
*1195 _1161_
*1196 _1162_
*1197 _1163_
*1198 _1164_
*1199 _1165_
*1200 _1166_
*1201 _1167_
*1202 _1168_
*1203 _1169_
*1204 _1170_
*1205 _1171_
*1206 _1172_
*1207 _1173_
*1208 _1174_
*1209 _1175_
*1210 _1176_
*1211 _1177_
*1212 _1178_
*1213 _1179_
*1214 _1180_
*1215 _1181_
*1216 _1182_
*1217 _1183_
*1218 _1184_
*1219 _1185_
*1220 _1186_
*1221 _1187_
*1222 _1188_
*1223 _1189_
*1224 _1190_
*1225 _1191_
*1226 _1192_
*1227 _1193_
*1228 _1194_
*1229 _1195_
*1230 _1196_
*1231 _1197_
*1232 _1198_
*1233 _1199_
*1234 _1200_
*1235 _1201_
*1236 _1202_
*1237 _1203_
*1238 _1204_
*1239 _1205_
*1240 _1206_
*1241 _1207_
*1242 _1208_
*1243 _1209_
*1244 _1210_
*1245 clknet_0_clk
*1246 clknet_2_0__leaf_clk
*1247 clknet_2_1__leaf_clk
*1248 clknet_2_2__leaf_clk
*1249 clknet_2_3__leaf_clk
*1250 clknet_leaf_0_clk
*1251 clknet_leaf_10_clk
*1252 clknet_leaf_11_clk
*1253 clknet_leaf_12_clk
*1254 clknet_leaf_13_clk
*1255 clknet_leaf_14_clk
*1256 clknet_leaf_15_clk
*1257 clknet_leaf_16_clk
*1258 clknet_leaf_17_clk
*1259 clknet_leaf_18_clk
*1260 clknet_leaf_19_clk
*1261 clknet_leaf_1_clk
*1262 clknet_leaf_20_clk
*1263 clknet_leaf_21_clk
*1264 clknet_leaf_22_clk
*1265 clknet_leaf_23_clk
*1266 clknet_leaf_24_clk
*1267 clknet_leaf_25_clk
*1268 clknet_leaf_26_clk
*1269 clknet_leaf_27_clk
*1270 clknet_leaf_28_clk
*1271 clknet_leaf_29_clk
*1272 clknet_leaf_2_clk
*1273 clknet_leaf_30_clk
*1274 clknet_leaf_31_clk
*1275 clknet_leaf_32_clk
*1276 clknet_leaf_33_clk
*1277 clknet_leaf_34_clk
*1278 clknet_leaf_35_clk
*1279 clknet_leaf_36_clk
*1280 clknet_leaf_37_clk
*1281 clknet_leaf_38_clk
*1282 clknet_leaf_39_clk
*1283 clknet_leaf_3_clk
*1284 clknet_leaf_4_clk
*1285 clknet_leaf_5_clk
*1286 clknet_leaf_6_clk
*1287 clknet_leaf_7_clk
*1288 clknet_leaf_8_clk
*1289 clknet_leaf_9_clk
*1290 equal_input
*1291 gencon_inst\.ALU_finish
*1292 gencon_inst\.ALU_in1\[0\]
*1293 gencon_inst\.ALU_in1\[10\]
*1294 gencon_inst\.ALU_in1\[11\]
*1295 gencon_inst\.ALU_in1\[12\]
*1296 gencon_inst\.ALU_in1\[13\]
*1297 gencon_inst\.ALU_in1\[14\]
*1298 gencon_inst\.ALU_in1\[15\]
*1299 gencon_inst\.ALU_in1\[1\]
*1300 gencon_inst\.ALU_in1\[2\]
*1301 gencon_inst\.ALU_in1\[3\]
*1302 gencon_inst\.ALU_in1\[4\]
*1303 gencon_inst\.ALU_in1\[5\]
*1304 gencon_inst\.ALU_in1\[6\]
*1305 gencon_inst\.ALU_in1\[7\]
*1306 gencon_inst\.ALU_in1\[8\]
*1307 gencon_inst\.ALU_in1\[9\]
*1308 gencon_inst\.ALU_in2\[0\]
*1309 gencon_inst\.ALU_in2\[10\]
*1310 gencon_inst\.ALU_in2\[11\]
*1311 gencon_inst\.ALU_in2\[12\]
*1312 gencon_inst\.ALU_in2\[13\]
*1313 gencon_inst\.ALU_in2\[14\]
*1314 gencon_inst\.ALU_in2\[15\]
*1315 gencon_inst\.ALU_in2\[1\]
*1316 gencon_inst\.ALU_in2\[2\]
*1317 gencon_inst\.ALU_in2\[3\]
*1318 gencon_inst\.ALU_in2\[4\]
*1319 gencon_inst\.ALU_in2\[5\]
*1320 gencon_inst\.ALU_in2\[6\]
*1321 gencon_inst\.ALU_in2\[7\]
*1322 gencon_inst\.ALU_in2\[8\]
*1323 gencon_inst\.ALU_in2\[9\]
*1324 gencon_inst\.ALU_out\[0\]
*1325 gencon_inst\.ALU_out\[10\]
*1326 gencon_inst\.ALU_out\[11\]
*1327 gencon_inst\.ALU_out\[12\]
*1328 gencon_inst\.ALU_out\[13\]
*1329 gencon_inst\.ALU_out\[14\]
*1330 gencon_inst\.ALU_out\[15\]
*1331 gencon_inst\.ALU_out\[1\]
*1332 gencon_inst\.ALU_out\[2\]
*1333 gencon_inst\.ALU_out\[3\]
*1334 gencon_inst\.ALU_out\[4\]
*1335 gencon_inst\.ALU_out\[5\]
*1336 gencon_inst\.ALU_out\[6\]
*1337 gencon_inst\.ALU_out\[7\]
*1338 gencon_inst\.ALU_out\[8\]
*1339 gencon_inst\.ALU_out\[9\]
*1340 gencon_inst\.addOrSub
*1341 gencon_inst\.add_calc\.diffSign
*1342 gencon_inst\.add_calc\.main\.GENERATE_ADDER\[10\]\.thingy\.in1
*1343 gencon_inst\.add_calc\.main\.GENERATE_ADDER\[11\]\.thingy\.in1
*1344 gencon_inst\.add_calc\.main\.GENERATE_ADDER\[12\]\.thingy\.in1
*1345 gencon_inst\.add_calc\.main\.GENERATE_ADDER\[13\]\.thingy\.in1
*1346 gencon_inst\.add_calc\.main\.GENERATE_ADDER\[14\]\.thingy\.in1
*1347 gencon_inst\.add_calc\.main\.GENERATE_ADDER\[1\]\.thingy\.in1
*1348 gencon_inst\.add_calc\.main\.GENERATE_ADDER\[2\]\.thingy\.in1
*1349 gencon_inst\.add_calc\.main\.GENERATE_ADDER\[3\]\.thingy\.in1
*1350 gencon_inst\.add_calc\.main\.GENERATE_ADDER\[4\]\.thingy\.in1
*1351 gencon_inst\.add_calc\.main\.GENERATE_ADDER\[5\]\.thingy\.in1
*1352 gencon_inst\.add_calc\.main\.GENERATE_ADDER\[6\]\.thingy\.in1
*1353 gencon_inst\.add_calc\.main\.GENERATE_ADDER\[7\]\.thingy\.in1
*1354 gencon_inst\.add_calc\.main\.GENERATE_ADDER\[8\]\.thingy\.in1
*1355 gencon_inst\.add_calc\.main\.GENERATE_ADDER\[9\]\.thingy\.in1
*1356 gencon_inst\.add_calc\.main\.a0\.in1
*1357 gencon_inst\.add_calc\.main\.in2\[0\]
*1358 gencon_inst\.add_calc\.main\.in2\[10\]
*1359 gencon_inst\.add_calc\.main\.in2\[11\]
*1360 gencon_inst\.add_calc\.main\.in2\[12\]
*1361 gencon_inst\.add_calc\.main\.in2\[13\]
*1362 gencon_inst\.add_calc\.main\.in2\[14\]
*1363 gencon_inst\.add_calc\.main\.in2\[1\]
*1364 gencon_inst\.add_calc\.main\.in2\[2\]
*1365 gencon_inst\.add_calc\.main\.in2\[3\]
*1366 gencon_inst\.add_calc\.main\.in2\[4\]
*1367 gencon_inst\.add_calc\.main\.in2\[5\]
*1368 gencon_inst\.add_calc\.main\.in2\[6\]
*1369 gencon_inst\.add_calc\.main\.in2\[7\]
*1370 gencon_inst\.add_calc\.main\.in2\[8\]
*1371 gencon_inst\.add_calc\.main\.in2\[9\]
*1372 gencon_inst\.add_calc\.next_finish
*1373 gencon_inst\.add_calc\.sameSignVal
*1374 gencon_inst\.add_calc\.start
*1375 gencon_inst\.add_calc\.state\[0\]
*1376 gencon_inst\.add_calc\.state\[1\]
*1377 gencon_inst\.add_calc\.state\[2\]
*1378 gencon_inst\.gencon_state\[0\]
*1379 gencon_inst\.gencon_state\[1\]
*1380 gencon_inst\.gencon_state\[2\]
*1381 gencon_inst\.gencon_state\[3\]
*1382 gencon_inst\.key_read
*1383 gencon_inst\.keypad_input\[0\]
*1384 gencon_inst\.keypad_input\[1\]
*1385 gencon_inst\.keypad_input\[2\]
*1386 gencon_inst\.keypad_input\[3\]
*1387 gencon_inst\.latched_keypad_input\[0\]
*1388 gencon_inst\.latched_keypad_input\[1\]
*1389 gencon_inst\.latched_keypad_input\[2\]
*1390 gencon_inst\.latched_keypad_input\[3\]
*1391 gencon_inst\.latched_operator_input\[0\]
*1392 gencon_inst\.latched_operator_input\[1\]
*1393 gencon_inst\.latched_operator_input\[2\]
*1394 gencon_inst\.mult_calc\.INn1\[0\]
*1395 gencon_inst\.mult_calc\.INn1\[10\]
*1396 gencon_inst\.mult_calc\.INn1\[11\]
*1397 gencon_inst\.mult_calc\.INn1\[12\]
*1398 gencon_inst\.mult_calc\.INn1\[13\]
*1399 gencon_inst\.mult_calc\.INn1\[14\]
*1400 gencon_inst\.mult_calc\.INn1\[15\]
*1401 gencon_inst\.mult_calc\.INn1\[1\]
*1402 gencon_inst\.mult_calc\.INn1\[2\]
*1403 gencon_inst\.mult_calc\.INn1\[3\]
*1404 gencon_inst\.mult_calc\.INn1\[4\]
*1405 gencon_inst\.mult_calc\.INn1\[5\]
*1406 gencon_inst\.mult_calc\.INn1\[6\]
*1407 gencon_inst\.mult_calc\.INn1\[7\]
*1408 gencon_inst\.mult_calc\.INn1\[8\]
*1409 gencon_inst\.mult_calc\.INn1\[9\]
*1410 gencon_inst\.mult_calc\.INn2\[0\]
*1411 gencon_inst\.mult_calc\.INn2\[10\]
*1412 gencon_inst\.mult_calc\.INn2\[11\]
*1413 gencon_inst\.mult_calc\.INn2\[12\]
*1414 gencon_inst\.mult_calc\.INn2\[13\]
*1415 gencon_inst\.mult_calc\.INn2\[14\]
*1416 gencon_inst\.mult_calc\.INn2\[15\]
*1417 gencon_inst\.mult_calc\.INn2\[1\]
*1418 gencon_inst\.mult_calc\.INn2\[2\]
*1419 gencon_inst\.mult_calc\.INn2\[3\]
*1420 gencon_inst\.mult_calc\.INn2\[4\]
*1421 gencon_inst\.mult_calc\.INn2\[5\]
*1422 gencon_inst\.mult_calc\.INn2\[6\]
*1423 gencon_inst\.mult_calc\.INn2\[7\]
*1424 gencon_inst\.mult_calc\.INn2\[8\]
*1425 gencon_inst\.mult_calc\.INn2\[9\]
*1426 gencon_inst\.mult_calc\.adderSave\[0\]
*1427 gencon_inst\.mult_calc\.adderSave\[10\]
*1428 gencon_inst\.mult_calc\.adderSave\[11\]
*1429 gencon_inst\.mult_calc\.adderSave\[12\]
*1430 gencon_inst\.mult_calc\.adderSave\[13\]
*1431 gencon_inst\.mult_calc\.adderSave\[14\]
*1432 gencon_inst\.mult_calc\.adderSave\[1\]
*1433 gencon_inst\.mult_calc\.adderSave\[2\]
*1434 gencon_inst\.mult_calc\.adderSave\[3\]
*1435 gencon_inst\.mult_calc\.adderSave\[4\]
*1436 gencon_inst\.mult_calc\.adderSave\[5\]
*1437 gencon_inst\.mult_calc\.adderSave\[6\]
*1438 gencon_inst\.mult_calc\.adderSave\[7\]
*1439 gencon_inst\.mult_calc\.adderSave\[8\]
*1440 gencon_inst\.mult_calc\.adderSave\[9\]
*1441 gencon_inst\.mult_calc\.compCount\.in2\[0\]
*1442 gencon_inst\.mult_calc\.compCount\.in2\[10\]
*1443 gencon_inst\.mult_calc\.compCount\.in2\[11\]
*1444 gencon_inst\.mult_calc\.compCount\.in2\[12\]
*1445 gencon_inst\.mult_calc\.compCount\.in2\[13\]
*1446 gencon_inst\.mult_calc\.compCount\.in2\[14\]
*1447 gencon_inst\.mult_calc\.compCount\.in2\[1\]
*1448 gencon_inst\.mult_calc\.compCount\.in2\[2\]
*1449 gencon_inst\.mult_calc\.compCount\.in2\[3\]
*1450 gencon_inst\.mult_calc\.compCount\.in2\[4\]
*1451 gencon_inst\.mult_calc\.compCount\.in2\[5\]
*1452 gencon_inst\.mult_calc\.compCount\.in2\[6\]
*1453 gencon_inst\.mult_calc\.compCount\.in2\[7\]
*1454 gencon_inst\.mult_calc\.compCount\.in2\[8\]
*1455 gencon_inst\.mult_calc\.compCount\.in2\[9\]
*1456 gencon_inst\.mult_calc\.count\.GENERATE_ADDER\[10\]\.thingy\.in1
*1457 gencon_inst\.mult_calc\.count\.GENERATE_ADDER\[11\]\.thingy\.in1
*1458 gencon_inst\.mult_calc\.count\.GENERATE_ADDER\[12\]\.thingy\.in1
*1459 gencon_inst\.mult_calc\.count\.GENERATE_ADDER\[13\]\.thingy\.in1
*1460 gencon_inst\.mult_calc\.count\.GENERATE_ADDER\[14\]\.thingy\.in1
*1461 gencon_inst\.mult_calc\.count\.GENERATE_ADDER\[1\]\.thingy\.cIn
*1462 gencon_inst\.mult_calc\.count\.GENERATE_ADDER\[1\]\.thingy\.in1
*1463 gencon_inst\.mult_calc\.count\.GENERATE_ADDER\[2\]\.thingy\.in1
*1464 gencon_inst\.mult_calc\.count\.GENERATE_ADDER\[3\]\.thingy\.in1
*1465 gencon_inst\.mult_calc\.count\.GENERATE_ADDER\[4\]\.thingy\.in1
*1466 gencon_inst\.mult_calc\.count\.GENERATE_ADDER\[5\]\.thingy\.in1
*1467 gencon_inst\.mult_calc\.count\.GENERATE_ADDER\[6\]\.thingy\.in1
*1468 gencon_inst\.mult_calc\.count\.GENERATE_ADDER\[7\]\.thingy\.in1
*1469 gencon_inst\.mult_calc\.count\.GENERATE_ADDER\[8\]\.thingy\.in1
*1470 gencon_inst\.mult_calc\.count\.GENERATE_ADDER\[9\]\.thingy\.in1
*1471 gencon_inst\.mult_calc\.countSave\[0\]
*1472 gencon_inst\.mult_calc\.countSave\[10\]
*1473 gencon_inst\.mult_calc\.countSave\[11\]
*1474 gencon_inst\.mult_calc\.countSave\[12\]
*1475 gencon_inst\.mult_calc\.countSave\[13\]
*1476 gencon_inst\.mult_calc\.countSave\[14\]
*1477 gencon_inst\.mult_calc\.countSave\[1\]
*1478 gencon_inst\.mult_calc\.countSave\[2\]
*1479 gencon_inst\.mult_calc\.countSave\[3\]
*1480 gencon_inst\.mult_calc\.countSave\[4\]
*1481 gencon_inst\.mult_calc\.countSave\[5\]
*1482 gencon_inst\.mult_calc\.countSave\[6\]
*1483 gencon_inst\.mult_calc\.countSave\[7\]
*1484 gencon_inst\.mult_calc\.countSave\[8\]
*1485 gencon_inst\.mult_calc\.countSave\[9\]
*1486 gencon_inst\.mult_calc\.diffSign
*1487 gencon_inst\.mult_calc\.finish
*1488 gencon_inst\.mult_calc\.main\.GENERATE_ADDER\[10\]\.thingy\.in1
*1489 gencon_inst\.mult_calc\.main\.GENERATE_ADDER\[10\]\.thingy\.in2
*1490 gencon_inst\.mult_calc\.main\.GENERATE_ADDER\[11\]\.thingy\.in1
*1491 gencon_inst\.mult_calc\.main\.GENERATE_ADDER\[11\]\.thingy\.in2
*1492 gencon_inst\.mult_calc\.main\.GENERATE_ADDER\[12\]\.thingy\.in1
*1493 gencon_inst\.mult_calc\.main\.GENERATE_ADDER\[12\]\.thingy\.in2
*1494 gencon_inst\.mult_calc\.main\.GENERATE_ADDER\[13\]\.thingy\.in1
*1495 gencon_inst\.mult_calc\.main\.GENERATE_ADDER\[13\]\.thingy\.in2
*1496 gencon_inst\.mult_calc\.main\.GENERATE_ADDER\[14\]\.thingy\.in1
*1497 gencon_inst\.mult_calc\.main\.GENERATE_ADDER\[14\]\.thingy\.in2
*1498 gencon_inst\.mult_calc\.main\.GENERATE_ADDER\[1\]\.thingy\.in1
*1499 gencon_inst\.mult_calc\.main\.GENERATE_ADDER\[1\]\.thingy\.in2
*1500 gencon_inst\.mult_calc\.main\.GENERATE_ADDER\[2\]\.thingy\.in1
*1501 gencon_inst\.mult_calc\.main\.GENERATE_ADDER\[2\]\.thingy\.in2
*1502 gencon_inst\.mult_calc\.main\.GENERATE_ADDER\[3\]\.thingy\.in1
*1503 gencon_inst\.mult_calc\.main\.GENERATE_ADDER\[3\]\.thingy\.in2
*1504 gencon_inst\.mult_calc\.main\.GENERATE_ADDER\[4\]\.thingy\.in1
*1505 gencon_inst\.mult_calc\.main\.GENERATE_ADDER\[4\]\.thingy\.in2
*1506 gencon_inst\.mult_calc\.main\.GENERATE_ADDER\[5\]\.thingy\.in1
*1507 gencon_inst\.mult_calc\.main\.GENERATE_ADDER\[5\]\.thingy\.in2
*1508 gencon_inst\.mult_calc\.main\.GENERATE_ADDER\[6\]\.thingy\.in1
*1509 gencon_inst\.mult_calc\.main\.GENERATE_ADDER\[6\]\.thingy\.in2
*1510 gencon_inst\.mult_calc\.main\.GENERATE_ADDER\[7\]\.thingy\.in1
*1511 gencon_inst\.mult_calc\.main\.GENERATE_ADDER\[7\]\.thingy\.in2
*1512 gencon_inst\.mult_calc\.main\.GENERATE_ADDER\[8\]\.thingy\.in1
*1513 gencon_inst\.mult_calc\.main\.GENERATE_ADDER\[8\]\.thingy\.in2
*1514 gencon_inst\.mult_calc\.main\.GENERATE_ADDER\[9\]\.thingy\.in1
*1515 gencon_inst\.mult_calc\.main\.GENERATE_ADDER\[9\]\.thingy\.in2
*1516 gencon_inst\.mult_calc\.main\.a0\.in1
*1517 gencon_inst\.mult_calc\.main\.a0\.in2
*1518 gencon_inst\.mult_calc\.next_finish
*1519 gencon_inst\.mult_calc\.out\[0\]
*1520 gencon_inst\.mult_calc\.out\[10\]
*1521 gencon_inst\.mult_calc\.out\[11\]
*1522 gencon_inst\.mult_calc\.out\[12\]
*1523 gencon_inst\.mult_calc\.out\[13\]
*1524 gencon_inst\.mult_calc\.out\[14\]
*1525 gencon_inst\.mult_calc\.out\[15\]
*1526 gencon_inst\.mult_calc\.out\[1\]
*1527 gencon_inst\.mult_calc\.out\[2\]
*1528 gencon_inst\.mult_calc\.out\[3\]
*1529 gencon_inst\.mult_calc\.out\[4\]
*1530 gencon_inst\.mult_calc\.out\[5\]
*1531 gencon_inst\.mult_calc\.out\[6\]
*1532 gencon_inst\.mult_calc\.out\[7\]
*1533 gencon_inst\.mult_calc\.out\[8\]
*1534 gencon_inst\.mult_calc\.out\[9\]
*1535 gencon_inst\.mult_calc\.start
*1536 gencon_inst\.mult_calc\.state\[0\]
*1537 gencon_inst\.mult_calc\.state\[2\]
*1538 gencon_inst\.mult_calc\.state\[3\]
*1539 gencon_inst\.mult_calc\.state\[4\]
*1540 gencon_inst\.next_state\[0\]
*1541 gencon_inst\.next_state\[1\]
*1542 gencon_inst\.next_state\[2\]
*1543 gencon_inst\.next_state\[3\]
*1544 gencon_inst\.operand1\[0\]
*1545 gencon_inst\.operand1\[10\]
*1546 gencon_inst\.operand1\[11\]
*1547 gencon_inst\.operand1\[12\]
*1548 gencon_inst\.operand1\[13\]
*1549 gencon_inst\.operand1\[14\]
*1550 gencon_inst\.operand1\[15\]
*1551 gencon_inst\.operand1\[1\]
*1552 gencon_inst\.operand1\[2\]
*1553 gencon_inst\.operand1\[3\]
*1554 gencon_inst\.operand1\[4\]
*1555 gencon_inst\.operand1\[5\]
*1556 gencon_inst\.operand1\[6\]
*1557 gencon_inst\.operand1\[7\]
*1558 gencon_inst\.operand1\[8\]
*1559 gencon_inst\.operand1\[9\]
*1560 gencon_inst\.operand2\[0\]
*1561 gencon_inst\.operand2\[10\]
*1562 gencon_inst\.operand2\[11\]
*1563 gencon_inst\.operand2\[12\]
*1564 gencon_inst\.operand2\[13\]
*1565 gencon_inst\.operand2\[14\]
*1566 gencon_inst\.operand2\[15\]
*1567 gencon_inst\.operand2\[1\]
*1568 gencon_inst\.operand2\[2\]
*1569 gencon_inst\.operand2\[3\]
*1570 gencon_inst\.operand2\[4\]
*1571 gencon_inst\.operand2\[5\]
*1572 gencon_inst\.operand2\[6\]
*1573 gencon_inst\.operand2\[7\]
*1574 gencon_inst\.operand2\[8\]
*1575 gencon_inst\.operand2\[9\]
*1576 gencon_inst\.operator_input\[0\]
*1577 gencon_inst\.operator_input\[1\]
*1578 gencon_inst\.operator_input\[2\]
*1579 gencon_inst\.prev_operator_input\[0\]
*1580 gencon_inst\.prev_operator_input\[1\]
*1581 gencon_inst\.prev_operator_input\[2\]
*1582 gencon_inst\.prev_read_input
*1583 gencon_inst\.read_input
*1584 input_ctrl_inst\.RowMid\[0\]
*1585 input_ctrl_inst\.RowMid\[1\]