*SPEF "ieee 1481-1999"
*DESIGN "fpga"
*DATE "21:10:10 Wednesday July 16, 2025"
*VENDOR "The OpenROAD Project"
*PROGRAM "OpenROAD"
*VERSION "edf00dff99f6c40d67a30c0e22a8191c5d2ed9d6"
*DESIGN_FLOW "NAME_SCOPE LOCAL" "PIN_CAP NONE"
*DIVIDER /
*DELIMITER :
*BUS_DELIMITER []
*T_UNIT 1 NS
*C_UNIT 1 PF
*R_UNIT 1 OHM
*L_UNIT 1 HENRY

*NAME_MAP
*1 clk
*2 config_data_in
*3 config_data_out
*4 config_en
*5 io_east_in[0]
*6 io_east_in[10]
*7 io_east_in[11]
*8 io_east_in[12]
*9 io_east_in[13]
*10 io_east_in[14]
*11 io_east_in[15]
*12 io_east_in[16]
*13 io_east_in[17]
*14 io_east_in[18]
*15 io_east_in[19]
*16 io_east_in[1]
*17 io_east_in[20]
*18 io_east_in[21]
*19 io_east_in[22]
*20 io_east_in[23]
*21 io_east_in[24]
*22 io_east_in[25]
*23 io_east_in[26]
*24 io_east_in[27]
*25 io_east_in[28]
*26 io_east_in[29]
*27 io_east_in[2]
*28 io_east_in[30]
*29 io_east_in[31]
*30 io_east_in[3]
*31 io_east_in[4]
*32 io_east_in[5]
*33 io_east_in[6]
*34 io_east_in[7]
*35 io_east_in[8]
*36 io_east_in[9]
*37 io_east_out[0]
*38 io_east_out[10]
*39 io_east_out[11]
*40 io_east_out[12]
*41 io_east_out[13]
*42 net232
*43 net233
*44 io_east_out[16]
*45 io_east_out[17]
*46 io_east_out[18]
*47 io_east_out[19]
*48 io_east_out[1]
*49 io_east_out[20]
*50 io_east_out[21]
*51 io_east_out[22]
*52 io_east_out[23]
*53 io_east_out[24]
*54 io_east_out[25]
*55 io_east_out[26]
*56 io_east_out[27]
*57 io_east_out[28]
*58 io_east_out[29]
*59 io_east_out[2]
*60 net234
*61 net235
*62 io_east_out[3]
*63 io_east_out[4]
*64 io_east_out[5]
*65 io_east_out[6]
*66 io_east_out[7]
*67 io_east_out[8]
*68 io_east_out[9]
*69 io_north_in[0]
*70 io_north_in[10]
*71 io_north_in[11]
*72 io_north_in[12]
*73 io_north_in[13]
*74 io_north_in[14]
*75 io_north_in[15]
*76 io_north_in[16]
*77 io_north_in[17]
*78 io_north_in[18]
*79 io_north_in[19]
*80 io_north_in[1]
*81 io_north_in[20]
*82 io_north_in[21]
*83 io_north_in[22]
*84 io_north_in[23]
*85 io_north_in[24]
*86 io_north_in[25]
*87 io_north_in[26]
*88 io_north_in[27]
*89 io_north_in[28]
*90 io_north_in[29]
*91 io_north_in[2]
*92 io_north_in[30]
*93 io_north_in[31]
*94 io_north_in[3]
*95 io_north_in[4]
*96 io_north_in[5]
*97 io_north_in[6]
*98 io_north_in[7]
*99 io_north_in[8]
*100 io_north_in[9]
*101 io_north_out[0]
*102 io_north_out[10]
*103 io_north_out[11]
*104 io_north_out[12]
*105 io_north_out[13]
*106 net236
*107 net237
*108 io_north_out[16]
*109 io_north_out[17]
*110 io_north_out[18]
*111 io_north_out[19]
*112 io_north_out[1]
*113 io_north_out[20]
*114 io_north_out[21]
*115 io_north_out[22]
*116 io_north_out[23]
*117 io_north_out[24]
*118 io_north_out[25]
*119 io_north_out[26]
*120 io_north_out[27]
*121 io_north_out[28]
*122 io_north_out[29]
*123 io_north_out[2]
*124 net238
*125 net239
*126 io_north_out[3]
*127 io_north_out[4]
*128 io_north_out[5]
*129 io_north_out[6]
*130 io_north_out[7]
*131 io_north_out[8]
*132 io_north_out[9]
*133 io_south_in[0]
*134 io_south_in[10]
*135 io_south_in[11]
*136 io_south_in[12]
*137 io_south_in[13]
*138 io_south_in[14]
*139 io_south_in[15]
*140 io_south_in[16]
*141 io_south_in[17]
*142 io_south_in[18]
*143 io_south_in[19]
*144 io_south_in[1]
*145 io_south_in[20]
*146 io_south_in[21]
*147 io_south_in[22]
*148 io_south_in[23]
*149 io_south_in[24]
*150 io_south_in[25]
*151 io_south_in[26]
*152 io_south_in[27]
*153 io_south_in[28]
*154 io_south_in[29]
*155 io_south_in[2]
*156 io_south_in[30]
*157 io_south_in[31]
*158 io_south_in[3]
*159 io_south_in[4]
*160 io_south_in[5]
*161 io_south_in[6]
*162 io_south_in[7]
*163 io_south_in[8]
*164 io_south_in[9]
*165 io_south_out[0]
*166 io_south_out[10]
*167 io_south_out[11]
*168 io_south_out[12]
*169 io_south_out[13]
*170 net240
*171 net241
*172 io_south_out[16]
*173 io_south_out[17]
*174 io_south_out[18]
*175 io_south_out[19]
*176 io_south_out[1]
*177 io_south_out[20]
*178 io_south_out[21]
*179 io_south_out[22]
*180 io_south_out[23]
*181 io_south_out[24]
*182 io_south_out[25]
*183 io_south_out[26]
*184 io_south_out[27]
*185 io_south_out[28]
*186 io_south_out[29]
*187 io_south_out[2]
*188 net242
*189 net243
*190 io_south_out[3]
*191 io_south_out[4]
*192 io_south_out[5]
*193 io_south_out[6]
*194 io_south_out[7]
*195 io_south_out[8]
*196 io_south_out[9]
*197 io_west_in[0]
*198 io_west_in[10]
*199 io_west_in[11]
*200 io_west_in[12]
*201 io_west_in[13]
*202 io_west_in[14]
*203 io_west_in[15]
*204 io_west_in[16]
*205 io_west_in[17]
*206 io_west_in[18]
*207 io_west_in[19]
*208 io_west_in[1]
*209 io_west_in[20]
*210 io_west_in[21]
*211 io_west_in[22]
*212 io_west_in[23]
*213 io_west_in[24]
*214 io_west_in[25]
*215 io_west_in[26]
*216 io_west_in[27]
*217 io_west_in[28]
*218 io_west_in[29]
*219 io_west_in[2]
*220 io_west_in[30]
*221 io_west_in[31]
*222 io_west_in[3]
*223 io_west_in[4]
*224 io_west_in[5]
*225 io_west_in[6]
*226 io_west_in[7]
*227 io_west_in[8]
*228 io_west_in[9]
*229 io_west_out[0]
*230 io_west_out[10]
*231 io_west_out[11]
*232 io_west_out[12]
*233 io_west_out[13]
*234 net244
*235 net245
*236 io_west_out[16]
*237 io_west_out[17]
*238 io_west_out[18]
*239 io_west_out[19]
*240 io_west_out[1]
*241 io_west_out[20]
*242 io_west_out[21]
*243 io_west_out[22]
*244 io_west_out[23]
*245 io_west_out[24]
*246 io_west_out[25]
*247 io_west_out[26]
*248 io_west_out[27]
*249 io_west_out[28]
*250 io_west_out[29]
*251 io_west_out[2]
*252 net246
*253 net247
*254 io_west_out[3]
*255 io_west_out[4]
*256 io_west_out[5]
*257 io_west_out[6]
*258 io_west_out[7]
*259 io_west_out[8]
*260 io_west_out[9]
*261 le_clk
*262 le_en
*263 le_nrst
*264 nrst
*267 bus0_1\[0\]
*268 bus0_1\[10\]
*269 bus0_1\[11\]
*270 bus0_1\[12\]
*271 bus0_1\[13\]
*272 bus0_1\[1\]
*273 bus0_1\[2\]
*274 bus0_1\[3\]
*275 bus0_1\[4\]
*276 bus0_1\[5\]
*277 bus0_1\[6\]
*278 bus0_1\[7\]
*279 bus0_1\[8\]
*280 bus0_1\[9\]
*281 bus0_2\[0\]
*282 bus0_2\[10\]
*283 bus0_2\[11\]
*284 bus0_2\[12\]
*285 bus0_2\[13\]
*286 bus0_2\[1\]
*287 bus0_2\[2\]
*288 bus0_2\[3\]
*289 bus0_2\[4\]
*290 bus0_2\[5\]
*291 bus0_2\[6\]
*292 bus0_2\[7\]
*293 bus0_2\[8\]
*294 bus0_2\[9\]
*295 bus1_0\[0\]
*296 bus1_0\[10\]
*297 bus1_0\[11\]
*298 bus1_0\[12\]
*299 bus1_0\[13\]
*300 bus1_0\[1\]
*301 bus1_0\[2\]
*302 bus1_0\[3\]
*303 bus1_0\[4\]
*304 bus1_0\[5\]
*305 bus1_0\[6\]
*306 bus1_0\[7\]
*307 bus1_0\[8\]
*308 bus1_0\[9\]
*309 bus1_3\[0\]
*310 bus1_3\[10\]
*311 bus1_3\[11\]
*312 bus1_3\[12\]
*313 bus1_3\[13\]
*314 bus1_3\[1\]
*315 bus1_3\[2\]
*316 bus1_3\[3\]
*317 bus1_3\[4\]
*318 bus1_3\[5\]
*319 bus1_3\[6\]
*320 bus1_3\[7\]
*321 bus1_3\[8\]
*322 bus1_3\[9\]
*323 bus2_0\[0\]
*324 bus2_0\[10\]
*325 bus2_0\[11\]
*326 bus2_0\[12\]
*327 bus2_0\[13\]
*328 bus2_0\[1\]
*329 bus2_0\[2\]
*330 bus2_0\[3\]
*331 bus2_0\[4\]
*332 bus2_0\[5\]
*333 bus2_0\[6\]
*334 bus2_0\[7\]
*335 bus2_0\[8\]
*336 bus2_0\[9\]
*337 bus2_3\[0\]
*338 bus2_3\[10\]
*339 bus2_3\[11\]
*340 bus2_3\[12\]
*341 bus2_3\[13\]
*342 bus2_3\[1\]
*343 bus2_3\[2\]
*344 bus2_3\[3\]
*345 bus2_3\[4\]
*346 bus2_3\[5\]
*347 bus2_3\[6\]
*348 bus2_3\[7\]
*349 bus2_3\[8\]
*350 bus2_3\[9\]
*351 bus3_1\[0\]
*352 bus3_1\[10\]
*353 bus3_1\[11\]
*354 bus3_1\[12\]
*355 bus3_1\[13\]
*356 bus3_1\[1\]
*357 bus3_1\[2\]
*358 bus3_1\[3\]
*359 bus3_1\[4\]
*360 bus3_1\[5\]
*361 bus3_1\[6\]
*362 bus3_1\[7\]
*363 bus3_1\[8\]
*364 bus3_1\[9\]
*365 bus3_2\[0\]
*366 bus3_2\[10\]
*367 bus3_2\[11\]
*368 bus3_2\[12\]
*369 bus3_2\[13\]
*370 bus3_2\[1\]
*371 bus3_2\[2\]
*372 bus3_2\[3\]
*373 bus3_2\[4\]
*374 bus3_2\[5\]
*375 bus3_2\[6\]
*376 bus3_2\[7\]
*377 bus3_2\[8\]
*378 bus3_2\[9\]
*379 cell0_cram_out
*380 cell1_cram_out
*381 cell2_cram_out
*382 clknet_0_clk
*383 clknet_1_0__leaf_clk
*384 clknet_1_1__leaf_clk
*385 net1
*386 net10
*387 net100
*388 net101
*389 net102
*390 net103
*391 net104
*392 net105
*393 net106
*394 net107
*395 net108
*396 net109
*397 net11
*398 net110
*399 net111
*400 net112
*401 net113
*402 net114
*403 net115
*404 net116
*405 net117
*406 net118
*407 net119
*408 net12
*409 net120
*410 net121
*411 net122
*412 net123
*413 net124
*414 net125
*415 net126
*416 net127
*417 net128
*418 net129
*419 net13
*420 net130
*421 net131
*422 net132
*423 net133
*424 net134
*425 net135
*426 net136
*427 net137
*428 net138
*429 net139
*430 net14
*431 net140
*432 net141
*433 net142
*434 net143
*435 net144
*436 net145
*437 net146
*438 net147
*439 net148
*440 net149
*441 net15
*442 net150
*443 net151
*444 net152
*445 net153
*446 net154
*447 net155
*448 net156
*449 net157
*450 net158
*451 net159
*452 net16
*453 net160
*454 net161
*455 net162
*456 net163
*457 net164
*458 net165
*459 net166
*460 net167
*461 net168
*462 net169
*463 net17
*464 net170
*465 net171
*466 net172
*467 net173
*468 net174
*469 net175
*470 net176
*471 net177
*472 net178
*473 net179
*474 net18
*475 net180
*476 net181
*477 net182
*478 net183
*479 net184
*480 net185
*481 net186
*482 net187
*483 net188
*484 net189
*485 net19
*486 net190
*487 net191
*488 net192
*489 net193
*490 net194
*491 net195
*492 net196
*493 net197
*494 net198
*495 net199
*496 net2
*497 net20
*498 net200
*499 net201
*500 net202
*501 net203
*502 net204
*503 net205
*504 net206
*505 net207
*506 net208
*507 net209
*508 net21
*509 net210
*510 net211
*511 net212
*512 net213
*513 net214
*514 net215
*515 net216
*516 net217
*517 net218
*518 net219
*519 net22
*520 net220
*521 net221
*522 net222
*523 net223
*524 net224
*525 net225
*526 net226
*527 net227
*528 net228
*529 net229
*530 net23
*531 net230
*532 net231
*533 net24
*534 net25
*535 net26
*536 net27
*537 net28
*538 net29
*539 net3
*540 net30
*541 net31
*542 net32
*543 net33
*544 net34
*545 net35
*546 net36
*547 net37
*548 net38
*549 net39
*550 net4
*551 net40
*552 net41
*553 net42
*554 net43
*555 net44
*556 net45
*557 net46
*558 net47
*559 net48
*560 net49
*561 net5
*562 net50
*563 net51
*564 net52
*565 net53
*566 net54
*567 net55
*568 net56
*569 net57
*570 net58
*571 net59
*572 net6
*573 net60
*574 net61
*575 net62
*576 net63
*577 net64
*578 net65
*579 net66
*580 net67
*581 net68
*582 net69
*583 net7
*584 net70
*585 net71
*586 net72
*587 net73
*588 net74
*589 net75
*590 net76
*591 net77
*592 net78
*593 net79
*594 net8
*595 net80
*596 net81
*597 net82
*598 net83
*599 net84
*600 net85
*601 net86
*602 net87
*603 net88
*604 net89
*605 net9
*606 net90
*607 net91
*608 net92
*609 net93
*610 net94
*611 net95
*612 net96
*613 net97
*614 net98
*615 net99
*616 ANTENNA_cell0_clk
*617 ANTENNA_cell0_config_data_out
*618 ANTENNA_cell0_config_en
*619 ANTENNA_cell0_le_clk
*620 ANTENNA_cell0_le_en
*621 ANTENNA_cell0_le_nrst
*622 ANTENNA_cell0_nrst
*623 ANTENNA_cell1_clk
*624 ANTENNA_cell1_config_data_in
*625 ANTENNA_cell1_config_data_out
*626 ANTENNA_cell1_config_en
*627 ANTENNA_cell1_le_clk
*628 ANTENNA_cell1_le_en
*629 ANTENNA_cell1_le_nrst
*630 ANTENNA_cell1_nrst
*631 ANTENNA_cell2_clk
*632 ANTENNA_cell2_config_data_in
*633 ANTENNA_cell2_config_data_out
*634 ANTENNA_cell2_config_en
*635 ANTENNA_cell2_le_clk
*636 ANTENNA_cell2_le_en
*637 ANTENNA_cell2_le_nrst
*638 ANTENNA_cell2_nrst
*639 ANTENNA_cell3_clk
*640 ANTENNA_cell3_config_data_in
*641 ANTENNA_cell3_config_en
*642 ANTENNA_cell3_le_clk
*643 ANTENNA_cell3_le_en
*644 ANTENNA_cell3_le_nrst
*645 ANTENNA_cell3_nrst
*646 ANTENNA_clkbuf_0_clk_A
*647 ANTENNA_clkbuf_0_clk_X
*648 ANTENNA_clkbuf_1_0__f_clk_A
*649 ANTENNA_clkbuf_1_0__f_clk_X
*650 ANTENNA_clkbuf_1_1__f_clk_A
*651 ANTENNA_clkbuf_1_1__f_clk_X
*652 ANTENNA_input100_A
*653 ANTENNA_input101_A
*654 ANTENNA_input102_A
*655 ANTENNA_input103_A
*656 ANTENNA_input104_A
*657 ANTENNA_input105_A
*658 ANTENNA_input106_A
*659 ANTENNA_input107_A
*660 ANTENNA_input108_A
*661 ANTENNA_input109_A
*662 ANTENNA_input10_A
*663 ANTENNA_input110_A
*664 ANTENNA_input111_A
*665 ANTENNA_input112_A
*666 ANTENNA_input113_A
*667 ANTENNA_input114_A
*668 ANTENNA_input115_A
*669 ANTENNA_input115_X
*670 ANTENNA_input116_A
*671 ANTENNA_input116_X
*672 ANTENNA_input117_A
*673 ANTENNA_input117_X
*674 ANTENNA_input118_A
*675 ANTENNA_input118_X
*676 ANTENNA_input11_A
*677 ANTENNA_input12_A
*678 ANTENNA_input13_A
*679 ANTENNA_input14_A
*680 ANTENNA_input15_A
*681 ANTENNA_input16_A
*682 ANTENNA_input17_A
*683 ANTENNA_input18_A
*684 ANTENNA_input19_A
*685 ANTENNA_input1_A
*686 ANTENNA_input20_A
*687 ANTENNA_input21_A
*688 ANTENNA_input22_A
*689 ANTENNA_input23_A
*690 ANTENNA_input24_A
*691 ANTENNA_input25_A
*692 ANTENNA_input26_A
*693 ANTENNA_input27_A
*694 ANTENNA_input28_A
*695 ANTENNA_input29_A
*696 ANTENNA_input2_A
*697 ANTENNA_input2_X
*698 ANTENNA_input30_A
*699 ANTENNA_input31_A
*700 ANTENNA_input32_A
*701 ANTENNA_input33_A
*702 ANTENNA_input34_A
*703 ANTENNA_input35_A
*704 ANTENNA_input36_A
*705 ANTENNA_input37_A
*706 ANTENNA_input38_A
*707 ANTENNA_input39_A
*708 ANTENNA_input3_A
*709 ANTENNA_input40_A
*710 ANTENNA_input41_A
*711 ANTENNA_input42_A
*712 ANTENNA_input43_A
*713 ANTENNA_input44_A
*714 ANTENNA_input45_A
*715 ANTENNA_input46_A
*716 ANTENNA_input47_A
*717 ANTENNA_input48_A
*718 ANTENNA_input49_A
*719 ANTENNA_input4_A
*720 ANTENNA_input50_A
*721 ANTENNA_input51_A
*722 ANTENNA_input52_A
*723 ANTENNA_input53_A
*724 ANTENNA_input54_A
*725 ANTENNA_input55_A
*726 ANTENNA_input56_A
*727 ANTENNA_input57_A
*728 ANTENNA_input58_A
*729 ANTENNA_input59_A
*730 ANTENNA_input5_A
*731 ANTENNA_input60_A
*732 ANTENNA_input61_A
*733 ANTENNA_input62_A
*734 ANTENNA_input63_A
*735 ANTENNA_input64_A
*736 ANTENNA_input65_A
*737 ANTENNA_input66_A
*738 ANTENNA_input67_A
*739 ANTENNA_input68_A
*740 ANTENNA_input69_A
*741 ANTENNA_input6_A
*742 ANTENNA_input70_A
*743 ANTENNA_input71_A
*744 ANTENNA_input72_A
*745 ANTENNA_input73_A
*746 ANTENNA_input74_A
*747 ANTENNA_input75_A
*748 ANTENNA_input76_A
*749 ANTENNA_input77_A
*750 ANTENNA_input78_A
*751 ANTENNA_input79_A
*752 ANTENNA_input7_A
*753 ANTENNA_input80_A
*754 ANTENNA_input81_A
*755 ANTENNA_input82_A
*756 ANTENNA_input83_A
*757 ANTENNA_input84_A
*758 ANTENNA_input85_A
*759 ANTENNA_input86_A
*760 ANTENNA_input87_A
*761 ANTENNA_input88_A
*762 ANTENNA_input89_A
*763 ANTENNA_input8_A
*764 ANTENNA_input90_A
*765 ANTENNA_input91_A
*766 ANTENNA_input92_A
*767 ANTENNA_input93_A
*768 ANTENNA_input94_A
*769 ANTENNA_input95_A
*770 ANTENNA_input96_A
*771 ANTENNA_input97_A
*772 ANTENNA_input98_A
*773 ANTENNA_input99_A
*774 ANTENNA_input9_A
*775 FILLER_0_109
*776 FILLER_0_117
*777 FILLER_0_123
*778 FILLER_0_131
*779 FILLER_0_137
*780 FILLER_0_141
*781 FILLER_0_15
*782 FILLER_0_151
*783 FILLER_0_159
*784 FILLER_0_165
*785 FILLER_0_173
*786 FILLER_0_181
*787 FILLER_0_186
*788 FILLER_0_194
*789 FILLER_0_201
*790 FILLER_0_207
*791 FILLER_0_215
*792 FILLER_0_221
*793 FILLER_0_225
*794 FILLER_0_235
*795 FILLER_0_243
*796 FILLER_0_249
*797 FILLER_0_257
*798 FILLER_0_265
*799 FILLER_0_27
*800 FILLER_0_270
*801 FILLER_0_284
*802 FILLER_0_29
*803 FILLER_0_290
*804 FILLER_0_298
*805 FILLER_0_3
*806 FILLER_0_304
*807 FILLER_0_309
*808 FILLER_0_318
*809 FILLER_0_326
*810 FILLER_0_332
*811 FILLER_0_342
*812 FILLER_0_353
*813 FILLER_0_361
*814 FILLER_0_368
*815 FILLER_0_374
*816 FILLER_0_382
*817 FILLER_0_388
*818 FILLER_0_393
*819 FILLER_0_402
*820 FILLER_0_41
*821 FILLER_0_410
*822 FILLER_0_416
*823 FILLER_0_426
*824 FILLER_0_437
*825 FILLER_0_445
*826 FILLER_0_449
*827 FILLER_0_461
*828 FILLER_0_473
*829 FILLER_0_477
*830 FILLER_0_489
*831 FILLER_0_501
*832 FILLER_0_505
*833 FILLER_0_517
*834 FILLER_0_522
*835 FILLER_0_53
*836 FILLER_0_530
*837 FILLER_0_537
*838 FILLER_0_543
*839 FILLER_0_551
*840 FILLER_0_557
*841 FILLER_0_561
*842 FILLER_0_57
*843 FILLER_0_571
*844 FILLER_0_578
*845 FILLER_0_586
*846 FILLER_0_593
*847 FILLER_0_601
*848 FILLER_0_606
*849 FILLER_0_614
*850 FILLER_0_621
*851 FILLER_0_627
*852 FILLER_0_635
*853 FILLER_0_641
*854 FILLER_0_645
*855 FILLER_0_655
*856 FILLER_0_662
*857 FILLER_0_670
*858 FILLER_0_677
*859 FILLER_0_683
*860 FILLER_0_689
*861 FILLER_0_69
*862 FILLER_0_697
*863 FILLER_0_706
*864 FILLER_0_712
*865 FILLER_0_718
*866 FILLER_0_724
*867 FILLER_0_729
*868 FILLER_0_738
*869 FILLER_0_745
*870 FILLER_0_753
*871 FILLER_0_762
*872 FILLER_0_773
*873 FILLER_0_781
*874 FILLER_0_790
*875 FILLER_0_796
*876 FILLER_0_802
*877 FILLER_0_808
*878 FILLER_0_81
*879 FILLER_0_813
*880 FILLER_0_822
*881 FILLER_0_834
*882 FILLER_0_841
*883 FILLER_0_85
*884 FILLER_0_853
*885 FILLER_0_865
*886 FILLER_0_869
*887 FILLER_0_881
*888 FILLER_0_893
*889 FILLER_0_897
*890 FILLER_0_905
*891 FILLER_0_97
*892 FILLER_100_20
*893 FILLER_100_29
*894 FILLER_100_8
*895 FILLER_100_877
*896 FILLER_100_889
*897 FILLER_100_901
*898 FILLER_101_15
*899 FILLER_101_27
*900 FILLER_101_3
*901 FILLER_101_877
*902 FILLER_101_889
*903 FILLER_101_901
*904 FILLER_102_20
*905 FILLER_102_29
*906 FILLER_102_8
*907 FILLER_102_877
*908 FILLER_102_889
*909 FILLER_102_901
*910 FILLER_103_15
*911 FILLER_103_27
*912 FILLER_103_3
*913 FILLER_103_877
*914 FILLER_103_889
*915 FILLER_103_901
*916 FILLER_104_20
*917 FILLER_104_29
*918 FILLER_104_8
*919 FILLER_104_877
*920 FILLER_104_889
*921 FILLER_104_901
*922 FILLER_105_20
*923 FILLER_105_28
*924 FILLER_105_8
*925 FILLER_105_877
*926 FILLER_105_889
*927 FILLER_105_901
*928 FILLER_106_15
*929 FILLER_106_27
*930 FILLER_106_29
*931 FILLER_106_3
*932 FILLER_106_877
*933 FILLER_106_889
*934 FILLER_106_901
*935 FILLER_106_903
*936 FILLER_107_15
*937 FILLER_107_27
*938 FILLER_107_3
*939 FILLER_107_877
*940 FILLER_107_889
*941 FILLER_107_901
*942 FILLER_108_29
*943 FILLER_108_877
*944 FILLER_108_889
*945 FILLER_108_901
*946 FILLER_109_15
*947 FILLER_109_27
*948 FILLER_109_3
*949 FILLER_109_877
*950 FILLER_109_889
*951 FILLER_109_901
*952 FILLER_10_15
*953 FILLER_10_27
*954 FILLER_10_29
*955 FILLER_10_3
*956 FILLER_10_877
*957 FILLER_10_889
*958 FILLER_10_897
*959 FILLER_10_903
*960 FILLER_110_20
*961 FILLER_110_29
*962 FILLER_110_8
*963 FILLER_110_877
*964 FILLER_110_889
*965 FILLER_110_901
*966 FILLER_111_15
*967 FILLER_111_27
*968 FILLER_111_3
*969 FILLER_111_877
*970 FILLER_111_889
*971 FILLER_111_901
*972 FILLER_112_20
*973 FILLER_112_29
*974 FILLER_112_8
*975 FILLER_112_877
*976 FILLER_112_889
*977 FILLER_112_901
*978 FILLER_113_15
*979 FILLER_113_27
*980 FILLER_113_3
*981 FILLER_113_877
*982 FILLER_113_889
*983 FILLER_113_901
*984 FILLER_114_19
*985 FILLER_114_27
*986 FILLER_114_29
*987 FILLER_114_7
*988 FILLER_114_877
*989 FILLER_114_889
*990 FILLER_114_897
*991 FILLER_114_903
*992 FILLER_115_19
*993 FILLER_115_27
*994 FILLER_115_7
*995 FILLER_115_877
*996 FILLER_115_889
*997 FILLER_115_901
*998 FILLER_116_15
*999 FILLER_116_27
*1000 FILLER_116_29
*1001 FILLER_116_3
*1002 FILLER_116_877
*1003 FILLER_116_889
*1004 FILLER_116_901
*1005 FILLER_116_903
*1006 FILLER_117_15
*1007 FILLER_117_27
*1008 FILLER_117_3
*1009 FILLER_117_877
*1010 FILLER_117_889
*1011 FILLER_117_901
*1012 FILLER_118_19
*1013 FILLER_118_27
*1014 FILLER_118_29
*1015 FILLER_118_7
*1016 FILLER_118_877
*1017 FILLER_118_889
*1018 FILLER_118_897
*1019 FILLER_118_903
*1020 FILLER_119_15
*1021 FILLER_119_27
*1022 FILLER_119_3
*1023 FILLER_119_877
*1024 FILLER_119_889
*1025 FILLER_119_901
*1026 FILLER_11_15
*1027 FILLER_11_27
*1028 FILLER_11_3
*1029 FILLER_11_879
*1030 FILLER_11_891
*1031 FILLER_11_903
*1032 FILLER_120_19
*1033 FILLER_120_27
*1034 FILLER_120_29
*1035 FILLER_120_7
*1036 FILLER_120_877
*1037 FILLER_120_889
*1038 FILLER_120_897
*1039 FILLER_120_903
*1040 FILLER_121_15
*1041 FILLER_121_27
*1042 FILLER_121_3
*1043 FILLER_121_877
*1044 FILLER_121_889
*1045 FILLER_121_901
*1046 FILLER_122_19
*1047 FILLER_122_27
*1048 FILLER_122_29
*1049 FILLER_122_7
*1050 FILLER_122_877
*1051 FILLER_122_889
*1052 FILLER_122_897
*1053 FILLER_122_903
*1054 FILLER_123_15
*1055 FILLER_123_27
*1056 FILLER_123_3
*1057 FILLER_123_877
*1058 FILLER_123_889
*1059 FILLER_123_901
*1060 FILLER_124_19
*1061 FILLER_124_27
*1062 FILLER_124_29
*1063 FILLER_124_7
*1064 FILLER_124_877
*1065 FILLER_124_889
*1066 FILLER_124_897
*1067 FILLER_124_903
*1068 FILLER_125_19
*1069 FILLER_125_27
*1070 FILLER_125_7
*1071 FILLER_125_877
*1072 FILLER_125_889
*1073 FILLER_125_901
*1074 FILLER_126_15
*1075 FILLER_126_27
*1076 FILLER_126_29
*1077 FILLER_126_3
*1078 FILLER_126_877
*1079 FILLER_126_889
*1080 FILLER_126_901
*1081 FILLER_126_903
*1082 FILLER_127_15
*1083 FILLER_127_27
*1084 FILLER_127_3
*1085 FILLER_127_877
*1086 FILLER_127_889
*1087 FILLER_127_901
*1088 FILLER_128_19
*1089 FILLER_128_27
*1090 FILLER_128_29
*1091 FILLER_128_7
*1092 FILLER_128_877
*1093 FILLER_128_889
*1094 FILLER_128_897
*1095 FILLER_129_15
*1096 FILLER_129_27
*1097 FILLER_129_3
*1098 FILLER_129_877
*1099 FILLER_129_889
*1100 FILLER_129_901
*1101 FILLER_12_15
*1102 FILLER_12_27
*1103 FILLER_12_29
*1104 FILLER_12_3
*1105 FILLER_12_877
*1106 FILLER_12_889
*1107 FILLER_12_901
*1108 FILLER_12_903
*1109 FILLER_130_19
*1110 FILLER_130_27
*1111 FILLER_130_29
*1112 FILLER_130_7
*1113 FILLER_130_877
*1114 FILLER_130_889
*1115 FILLER_130_897
*1116 FILLER_131_15
*1117 FILLER_131_27
*1118 FILLER_131_3
*1119 FILLER_131_877
*1120 FILLER_131_889
*1121 FILLER_131_901
*1122 FILLER_132_19
*1123 FILLER_132_27
*1124 FILLER_132_29
*1125 FILLER_132_7
*1126 FILLER_132_877
*1127 FILLER_132_889
*1128 FILLER_132_905
*1129 FILLER_133_15
*1130 FILLER_133_27
*1131 FILLER_133_3
*1132 FILLER_133_877
*1133 FILLER_133_889
*1134 FILLER_133_901
*1135 FILLER_134_19
*1136 FILLER_134_27
*1137 FILLER_134_29
*1138 FILLER_134_7
*1139 FILLER_134_877
*1140 FILLER_134_889
*1141 FILLER_134_897
*1142 FILLER_134_903
*1143 FILLER_135_19
*1144 FILLER_135_27
*1145 FILLER_135_7
*1146 FILLER_135_877
*1147 FILLER_135_889
*1148 FILLER_135_901
*1149 FILLER_136_15
*1150 FILLER_136_27
*1151 FILLER_136_29
*1152 FILLER_136_3
*1153 FILLER_136_877
*1154 FILLER_136_889
*1155 FILLER_136_901
*1156 FILLER_136_903
*1157 FILLER_137_15
*1158 FILLER_137_27
*1159 FILLER_137_3
*1160 FILLER_137_877
*1161 FILLER_137_889
*1162 FILLER_137_901
*1163 FILLER_138_19
*1164 FILLER_138_27
*1165 FILLER_138_29
*1166 FILLER_138_7
*1167 FILLER_138_877
*1168 FILLER_138_889
*1169 FILLER_138_897
*1170 FILLER_138_903
*1171 FILLER_139_15
*1172 FILLER_139_27
*1173 FILLER_139_3
*1174 FILLER_139_877
*1175 FILLER_139_889
*1176 FILLER_139_901
*1177 FILLER_13_15
*1178 FILLER_13_27
*1179 FILLER_13_3
*1180 FILLER_13_879
*1181 FILLER_13_891
*1182 FILLER_13_903
*1183 FILLER_13_906
*1184 FILLER_140_15
*1185 FILLER_140_27
*1186 FILLER_140_29
*1187 FILLER_140_3
*1188 FILLER_140_877
*1189 FILLER_140_889
*1190 FILLER_140_897
*1191 FILLER_140_903
*1192 FILLER_141_15
*1193 FILLER_141_27
*1194 FILLER_141_3
*1195 FILLER_141_877
*1196 FILLER_141_889
*1197 FILLER_141_901
*1198 FILLER_142_15
*1199 FILLER_142_27
*1200 FILLER_142_29
*1201 FILLER_142_3
*1202 FILLER_142_877
*1203 FILLER_142_889
*1204 FILLER_142_901
*1205 FILLER_142_903
*1206 FILLER_143_15
*1207 FILLER_143_27
*1208 FILLER_143_3
*1209 FILLER_143_877
*1210 FILLER_143_889
*1211 FILLER_143_901
*1212 FILLER_144_15
*1213 FILLER_144_27
*1214 FILLER_144_29
*1215 FILLER_144_3
*1216 FILLER_144_877
*1217 FILLER_144_889
*1218 FILLER_144_901
*1219 FILLER_144_903
*1220 FILLER_145_15
*1221 FILLER_145_27
*1222 FILLER_145_3
*1223 FILLER_145_877
*1224 FILLER_145_889
*1225 FILLER_145_901
*1226 FILLER_146_100
*1227 FILLER_146_113
*1228 FILLER_146_125
*1229 FILLER_146_137
*1230 FILLER_146_141
*1231 FILLER_146_15
*1232 FILLER_146_153
*1233 FILLER_146_165
*1234 FILLER_146_169
*1235 FILLER_146_181
*1236 FILLER_146_193
*1237 FILLER_146_197
*1238 FILLER_146_209
*1239 FILLER_146_221
*1240 FILLER_146_225
*1241 FILLER_146_237
*1242 FILLER_146_249
*1243 FILLER_146_253
*1244 FILLER_146_259
*1245 FILLER_146_27
*1246 FILLER_146_281
*1247 FILLER_146_286
*1248 FILLER_146_29
*1249 FILLER_146_298
*1250 FILLER_146_3
*1251 FILLER_146_306
*1252 FILLER_146_309
*1253 FILLER_146_321
*1254 FILLER_146_333
*1255 FILLER_146_337
*1256 FILLER_146_349
*1257 FILLER_146_361
*1258 FILLER_146_365
*1259 FILLER_146_377
*1260 FILLER_146_389
*1261 FILLER_146_41
*1262 FILLER_146_415
*1263 FILLER_146_419
*1264 FILLER_146_421
*1265 FILLER_146_433
*1266 FILLER_146_439
*1267 FILLER_146_449
*1268 FILLER_146_461
*1269 FILLER_146_471
*1270 FILLER_146_475
*1271 FILLER_146_477
*1272 FILLER_146_483
*1273 FILLER_146_491
*1274 FILLER_146_495
*1275 FILLER_146_503
*1276 FILLER_146_507
*1277 FILLER_146_519
*1278 FILLER_146_53
*1279 FILLER_146_531
*1280 FILLER_146_533
*1281 FILLER_146_545
*1282 FILLER_146_557
*1283 FILLER_146_561
*1284 FILLER_146_57
*1285 FILLER_146_573
*1286 FILLER_146_585
*1287 FILLER_146_589
*1288 FILLER_146_601
*1289 FILLER_146_61
*1290 FILLER_146_613
*1291 FILLER_146_617
*1292 FILLER_146_629
*1293 FILLER_146_64
*1294 FILLER_146_641
*1295 FILLER_146_645
*1296 FILLER_146_657
*1297 FILLER_146_669
*1298 FILLER_146_673
*1299 FILLER_146_685
*1300 FILLER_146_697
*1301 FILLER_146_701
*1302 FILLER_146_713
*1303 FILLER_146_72
*1304 FILLER_146_725
*1305 FILLER_146_729
*1306 FILLER_146_741
*1307 FILLER_146_753
*1308 FILLER_146_757
*1309 FILLER_146_76
*1310 FILLER_146_769
*1311 FILLER_146_781
*1312 FILLER_146_785
*1313 FILLER_146_797
*1314 FILLER_146_809
*1315 FILLER_146_813
*1316 FILLER_146_825
*1317 FILLER_146_837
*1318 FILLER_146_841
*1319 FILLER_146_85
*1320 FILLER_146_853
*1321 FILLER_146_865
*1322 FILLER_146_869
*1323 FILLER_146_88
*1324 FILLER_146_881
*1325 FILLER_146_893
*1326 FILLER_146_897
*1327 FILLER_146_905
*1328 FILLER_146_96
*1329 FILLER_147_105
*1330 FILLER_147_111
*1331 FILLER_147_113
*1332 FILLER_147_125
*1333 FILLER_147_137
*1334 FILLER_147_149
*1335 FILLER_147_15
*1336 FILLER_147_161
*1337 FILLER_147_167
*1338 FILLER_147_169
*1339 FILLER_147_181
*1340 FILLER_147_193
*1341 FILLER_147_205
*1342 FILLER_147_217
*1343 FILLER_147_223
*1344 FILLER_147_225
*1345 FILLER_147_237
*1346 FILLER_147_249
*1347 FILLER_147_261
*1348 FILLER_147_27
*1349 FILLER_147_273
*1350 FILLER_147_279
*1351 FILLER_147_281
*1352 FILLER_147_293
*1353 FILLER_147_3
*1354 FILLER_147_305
*1355 FILLER_147_317
*1356 FILLER_147_329
*1357 FILLER_147_335
*1358 FILLER_147_337
*1359 FILLER_147_349
*1360 FILLER_147_361
*1361 FILLER_147_373
*1362 FILLER_147_385
*1363 FILLER_147_39
*1364 FILLER_147_391
*1365 FILLER_147_393
*1366 FILLER_147_405
*1367 FILLER_147_417
*1368 FILLER_147_429
*1369 FILLER_147_441
*1370 FILLER_147_447
*1371 FILLER_147_449
*1372 FILLER_147_461
*1373 FILLER_147_473
*1374 FILLER_147_485
*1375 FILLER_147_497
*1376 FILLER_147_503
*1377 FILLER_147_505
*1378 FILLER_147_51
*1379 FILLER_147_517
*1380 FILLER_147_529
*1381 FILLER_147_541
*1382 FILLER_147_55
*1383 FILLER_147_553
*1384 FILLER_147_559
*1385 FILLER_147_561
*1386 FILLER_147_57
*1387 FILLER_147_573
*1388 FILLER_147_585
*1389 FILLER_147_597
*1390 FILLER_147_609
*1391 FILLER_147_615
*1392 FILLER_147_617
*1393 FILLER_147_629
*1394 FILLER_147_641
*1395 FILLER_147_653
*1396 FILLER_147_665
*1397 FILLER_147_671
*1398 FILLER_147_673
*1399 FILLER_147_685
*1400 FILLER_147_69
*1401 FILLER_147_697
*1402 FILLER_147_709
*1403 FILLER_147_721
*1404 FILLER_147_727
*1405 FILLER_147_729
*1406 FILLER_147_741
*1407 FILLER_147_753
*1408 FILLER_147_765
*1409 FILLER_147_777
*1410 FILLER_147_783
*1411 FILLER_147_785
*1412 FILLER_147_797
*1413 FILLER_147_809
*1414 FILLER_147_81
*1415 FILLER_147_821
*1416 FILLER_147_833
*1417 FILLER_147_839
*1418 FILLER_147_841
*1419 FILLER_147_853
*1420 FILLER_147_865
*1421 FILLER_147_877
*1422 FILLER_147_889
*1423 FILLER_147_895
*1424 FILLER_147_897
*1425 FILLER_147_905
*1426 FILLER_147_93
*1427 FILLER_148_109
*1428 FILLER_148_121
*1429 FILLER_148_133
*1430 FILLER_148_139
*1431 FILLER_148_141
*1432 FILLER_148_15
*1433 FILLER_148_153
*1434 FILLER_148_165
*1435 FILLER_148_177
*1436 FILLER_148_189
*1437 FILLER_148_195
*1438 FILLER_148_197
*1439 FILLER_148_209
*1440 FILLER_148_221
*1441 FILLER_148_233
*1442 FILLER_148_245
*1443 FILLER_148_251
*1444 FILLER_148_253
*1445 FILLER_148_265
*1446 FILLER_148_27
*1447 FILLER_148_277
*1448 FILLER_148_289
*1449 FILLER_148_29
*1450 FILLER_148_3
*1451 FILLER_148_301
*1452 FILLER_148_307
*1453 FILLER_148_309
*1454 FILLER_148_321
*1455 FILLER_148_333
*1456 FILLER_148_345
*1457 FILLER_148_357
*1458 FILLER_148_363
*1459 FILLER_148_365
*1460 FILLER_148_377
*1461 FILLER_148_389
*1462 FILLER_148_401
*1463 FILLER_148_41
*1464 FILLER_148_413
*1465 FILLER_148_419
*1466 FILLER_148_421
*1467 FILLER_148_433
*1468 FILLER_148_445
*1469 FILLER_148_457
*1470 FILLER_148_469
*1471 FILLER_148_475
*1472 FILLER_148_477
*1473 FILLER_148_489
*1474 FILLER_148_501
*1475 FILLER_148_513
*1476 FILLER_148_525
*1477 FILLER_148_53
*1478 FILLER_148_531
*1479 FILLER_148_533
*1480 FILLER_148_545
*1481 FILLER_148_557
*1482 FILLER_148_569
*1483 FILLER_148_581
*1484 FILLER_148_587
*1485 FILLER_148_589
*1486 FILLER_148_601
*1487 FILLER_148_613
*1488 FILLER_148_625
*1489 FILLER_148_637
*1490 FILLER_148_643
*1491 FILLER_148_645
*1492 FILLER_148_65
*1493 FILLER_148_657
*1494 FILLER_148_669
*1495 FILLER_148_681
*1496 FILLER_148_693
*1497 FILLER_148_699
*1498 FILLER_148_701
*1499 FILLER_148_713
*1500 FILLER_148_725
*1501 FILLER_148_737
*1502 FILLER_148_749
*1503 FILLER_148_755
*1504 FILLER_148_757
*1505 FILLER_148_769
*1506 FILLER_148_77
*1507 FILLER_148_781
*1508 FILLER_148_793
*1509 FILLER_148_805
*1510 FILLER_148_811
*1511 FILLER_148_813
*1512 FILLER_148_825
*1513 FILLER_148_83
*1514 FILLER_148_837
*1515 FILLER_148_849
*1516 FILLER_148_85
*1517 FILLER_148_861
*1518 FILLER_148_867
*1519 FILLER_148_869
*1520 FILLER_148_881
*1521 FILLER_148_893
*1522 FILLER_148_905
*1523 FILLER_148_97
*1524 FILLER_149_105
*1525 FILLER_149_111
*1526 FILLER_149_113
*1527 FILLER_149_125
*1528 FILLER_149_137
*1529 FILLER_149_149
*1530 FILLER_149_15
*1531 FILLER_149_161
*1532 FILLER_149_167
*1533 FILLER_149_169
*1534 FILLER_149_181
*1535 FILLER_149_193
*1536 FILLER_149_205
*1537 FILLER_149_217
*1538 FILLER_149_223
*1539 FILLER_149_225
*1540 FILLER_149_237
*1541 FILLER_149_249
*1542 FILLER_149_261
*1543 FILLER_149_27
*1544 FILLER_149_273
*1545 FILLER_149_279
*1546 FILLER_149_281
*1547 FILLER_149_293
*1548 FILLER_149_3
*1549 FILLER_149_305
*1550 FILLER_149_317
*1551 FILLER_149_329
*1552 FILLER_149_335
*1553 FILLER_149_337
*1554 FILLER_149_349
*1555 FILLER_149_361
*1556 FILLER_149_373
*1557 FILLER_149_385
*1558 FILLER_149_39
*1559 FILLER_149_391
*1560 FILLER_149_393
*1561 FILLER_149_405
*1562 FILLER_149_417
*1563 FILLER_149_429
*1564 FILLER_149_441
*1565 FILLER_149_447
*1566 FILLER_149_449
*1567 FILLER_149_461
*1568 FILLER_149_473