*SPEF "ieee 1481-1999"
*DESIGN "fpgacell"
*DATE "01:37:21 Wednesday July 16, 2025"
*VENDOR "The OpenROAD Project"
*PROGRAM "OpenROAD"
*VERSION "edf00dff99f6c40d67a30c0e22a8191c5d2ed9d6"
*DESIGN_FLOW "NAME_SCOPE LOCAL" "PIN_CAP NONE"
*DIVIDER /
*DELIMITER :
*BUS_DELIMITER []
*T_UNIT 1 NS
*C_UNIT 1 PF
*R_UNIT 1 OHM
*L_UNIT 1 HENRY

*NAME_MAP
*1 CBeast_in[0]
*2 CBeast_in[10]
*3 CBeast_in[11]
*4 CBeast_in[12]
*5 CBeast_in[13]
*6 CBeast_in[1]
*7 CBeast_in[2]
*8 CBeast_in[3]
*9 CBeast_in[4]
*10 CBeast_in[5]
*11 CBeast_in[6]
*12 CBeast_in[7]
*13 CBeast_in[8]
*14 CBeast_in[9]
*15 CBeast_out[0]
*16 CBeast_out[10]
*17 CBeast_out[11]
*18 CBeast_out[12]
*19 CBeast_out[13]
*20 CBeast_out[1]
*21 CBeast_out[2]
*22 CBeast_out[3]
*23 CBeast_out[4]
*24 CBeast_out[5]
*25 CBeast_out[6]
*26 CBeast_out[7]
*27 CBeast_out[8]
*28 CBeast_out[9]
*29 CBnorth_in[0]
*30 CBnorth_in[10]
*31 CBnorth_in[11]
*32 CBnorth_in[12]
*33 CBnorth_in[13]
*34 CBnorth_in[1]
*35 CBnorth_in[2]
*36 CBnorth_in[3]
*37 CBnorth_in[4]
*38 CBnorth_in[5]
*39 CBnorth_in[6]
*40 CBnorth_in[7]
*41 CBnorth_in[8]
*42 CBnorth_in[9]
*43 CBnorth_out[0]
*44 CBnorth_out[10]
*45 CBnorth_out[11]
*46 CBnorth_out[12]
*47 CBnorth_out[13]
*48 CBnorth_out[1]
*49 CBnorth_out[2]
*50 CBnorth_out[3]
*51 CBnorth_out[4]
*52 CBnorth_out[5]
*53 CBnorth_out[6]
*54 CBnorth_out[7]
*55 CBnorth_out[8]
*56 CBnorth_out[9]
*57 SBsouth_in[0]
*58 SBsouth_in[10]
*59 SBsouth_in[11]
*60 SBsouth_in[12]
*61 SBsouth_in[13]
*62 SBsouth_in[1]
*63 SBsouth_in[2]
*64 SBsouth_in[3]
*65 SBsouth_in[4]
*66 SBsouth_in[5]
*67 SBsouth_in[6]
*68 SBsouth_in[7]
*69 SBsouth_in[8]
*70 SBsouth_in[9]
*71 SBsouth_out[0]
*72 SBsouth_out[10]
*73 SBsouth_out[11]
*74 SBsouth_out[12]
*75 SBsouth_out[13]
*76 SBsouth_out[1]
*77 SBsouth_out[2]
*78 SBsouth_out[3]
*79 SBsouth_out[4]
*80 SBsouth_out[5]
*81 SBsouth_out[6]
*82 SBsouth_out[7]
*83 SBsouth_out[8]
*84 SBsouth_out[9]
*85 SBwest_in[0]
*86 SBwest_in[10]
*87 SBwest_in[11]
*88 SBwest_in[12]
*89 SBwest_in[13]
*90 SBwest_in[1]
*91 SBwest_in[2]
*92 SBwest_in[3]
*93 SBwest_in[4]
*94 SBwest_in[5]
*95 SBwest_in[6]
*96 SBwest_in[7]
*97 SBwest_in[8]
*98 SBwest_in[9]
*99 SBwest_out[0]
*100 SBwest_out[10]
*101 SBwest_out[11]
*102 SBwest_out[12]
*103 SBwest_out[13]
*104 SBwest_out[1]
*105 SBwest_out[2]
*106 SBwest_out[3]
*107 SBwest_out[4]
*108 SBwest_out[5]
*109 SBwest_out[6]
*110 SBwest_out[7]
*111 SBwest_out[8]
*112 SBwest_out[9]
*113 clk
*114 config_data_in
*115 config_data_out
*116 config_en
*117 le_clk
*118 le_en
*119 le_nrst
*120 nrst
*123 CB_0\.config_dataA\[0\]
*124 CB_0\.config_dataA\[10\]
*125 CB_0\.config_dataA\[11\]
*126 CB_0\.config_dataA\[12\]
*127 CB_0\.config_dataA\[13\]
*128 CB_0\.config_dataA\[14\]
*129 CB_0\.config_dataA\[15\]
*130 CB_0\.config_dataA\[16\]
*131 CB_0\.config_dataA\[17\]
*132 CB_0\.config_dataA\[18\]
*133 CB_0\.config_dataA\[19\]
*134 CB_0\.config_dataA\[1\]
*135 CB_0\.config_dataA\[2\]
*136 CB_0\.config_dataA\[3\]
*137 CB_0\.config_dataA\[4\]
*138 CB_0\.config_dataA\[5\]
*139 CB_0\.config_dataA\[6\]
*140 CB_0\.config_dataA\[7\]
*141 CB_0\.config_dataA\[8\]
*142 CB_0\.config_dataA\[9\]
*143 CB_0\.config_dataB\[0\]
*144 CB_0\.config_dataB\[10\]
*145 CB_0\.config_dataB\[11\]
*146 CB_0\.config_dataB\[12\]
*147 CB_0\.config_dataB\[13\]
*148 CB_0\.config_dataB\[14\]
*149 CB_0\.config_dataB\[15\]
*150 CB_0\.config_dataB\[16\]
*151 CB_0\.config_dataB\[17\]
*152 CB_0\.config_dataB\[18\]
*153 CB_0\.config_dataB\[19\]
*154 CB_0\.config_dataB\[1\]
*155 CB_0\.config_dataB\[2\]
*156 CB_0\.config_dataB\[3\]
*157 CB_0\.config_dataB\[4\]
*158 CB_0\.config_dataB\[5\]
*159 CB_0\.config_dataB\[6\]
*160 CB_0\.config_dataB\[7\]
*161 CB_0\.config_dataB\[8\]
*162 CB_0\.config_dataB\[9\]
*163 CB_0\.config_data_inA
*164 CB_0\.le_outA
*165 CB_0\.le_outB
*166 CB_1\.config_dataA\[0\]
*167 CB_1\.config_dataA\[10\]
*168 CB_1\.config_dataA\[11\]
*169 CB_1\.config_dataA\[12\]
*170 CB_1\.config_dataA\[13\]
*171 CB_1\.config_dataA\[14\]
*172 CB_1\.config_dataA\[15\]
*173 CB_1\.config_dataA\[16\]
*174 CB_1\.config_dataA\[17\]
*175 CB_1\.config_dataA\[18\]
*176 CB_1\.config_dataA\[19\]
*177 CB_1\.config_dataA\[1\]
*178 CB_1\.config_dataA\[2\]
*179 CB_1\.config_dataA\[3\]
*180 CB_1\.config_dataA\[4\]
*181 CB_1\.config_dataA\[5\]
*182 CB_1\.config_dataA\[6\]
*183 CB_1\.config_dataA\[7\]
*184 CB_1\.config_dataA\[8\]
*185 CB_1\.config_dataA\[9\]
*186 CB_1\.config_dataB\[0\]
*187 CB_1\.config_dataB\[10\]
*188 CB_1\.config_dataB\[11\]
*189 CB_1\.config_dataB\[12\]
*190 CB_1\.config_dataB\[13\]
*191 CB_1\.config_dataB\[14\]
*192 CB_1\.config_dataB\[15\]
*193 CB_1\.config_dataB\[16\]
*194 CB_1\.config_dataB\[17\]
*195 CB_1\.config_dataB\[18\]
*196 CB_1\.config_dataB\[19\]
*197 CB_1\.config_dataB\[1\]
*198 CB_1\.config_dataB\[2\]
*199 CB_1\.config_dataB\[3\]
*200 CB_1\.config_dataB\[4\]
*201 CB_1\.config_dataB\[5\]
*202 CB_1\.config_dataB\[6\]
*203 CB_1\.config_dataB\[7\]
*204 CB_1\.config_dataB\[8\]
*205 CB_1\.config_dataB\[9\]
*206 CB_1\.le_outA
*207 CB_1\.le_outB
*208 LEI0\.config_data\[0\]
*209 LEI0\.config_data\[10\]
*210 LEI0\.config_data\[11\]
*211 LEI0\.config_data\[12\]
*212 LEI0\.config_data\[13\]
*213 LEI0\.config_data\[14\]
*214 LEI0\.config_data\[15\]
*215 LEI0\.config_data\[16\]
*216 LEI0\.config_data\[17\]
*217 LEI0\.config_data\[18\]
*218 LEI0\.config_data\[19\]
*219 LEI0\.config_data\[1\]
*220 LEI0\.config_data\[20\]
*221 LEI0\.config_data\[21\]
*222 LEI0\.config_data\[22\]
*223 LEI0\.config_data\[23\]
*224 LEI0\.config_data\[24\]
*225 LEI0\.config_data\[25\]
*226 LEI0\.config_data\[26\]
*227 LEI0\.config_data\[27\]
*228 LEI0\.config_data\[28\]
*229 LEI0\.config_data\[29\]
*230 LEI0\.config_data\[2\]
*231 LEI0\.config_data\[30\]
*232 LEI0\.config_data\[31\]
*233 LEI0\.config_data\[32\]
*234 LEI0\.config_data\[33\]
*235 LEI0\.config_data\[34\]
*236 LEI0\.config_data\[35\]
*237 LEI0\.config_data\[36\]
*238 LEI0\.config_data\[37\]
*239 LEI0\.config_data\[38\]
*240 LEI0\.config_data\[39\]
*241 LEI0\.config_data\[3\]
*242 LEI0\.config_data\[40\]
*243 LEI0\.config_data\[41\]
*244 LEI0\.config_data\[42\]
*245 LEI0\.config_data\[43\]
*246 LEI0\.config_data\[44\]
*247 LEI0\.config_data\[45\]
*248 LEI0\.config_data\[46\]
*249 LEI0\.config_data\[4\]
*250 LEI0\.config_data\[5\]
*251 LEI0\.config_data\[6\]
*252 LEI0\.config_data\[7\]
*253 LEI0\.config_data\[8\]
*254 LEI0\.config_data\[9\]
*255 LE_0A\.config_data\[0\]
*256 LE_0A\.config_data\[10\]
*257 LE_0A\.config_data\[11\]
*258 LE_0A\.config_data\[12\]
*259 LE_0A\.config_data\[13\]
*260 LE_0A\.config_data\[14\]
*261 LE_0A\.config_data\[15\]
*262 LE_0A\.config_data\[16\]
*263 LE_0A\.config_data\[1\]
*264 LE_0A\.config_data\[2\]
*265 LE_0A\.config_data\[3\]
*266 LE_0A\.config_data\[4\]
*267 LE_0A\.config_data\[5\]
*268 LE_0A\.config_data\[6\]
*269 LE_0A\.config_data\[7\]
*270 LE_0A\.config_data\[8\]
*271 LE_0A\.config_data\[9\]
*272 LE_0A\.dff0_out
*273 LE_0A\.dff1_out
*274 LE_0A\.dff_out
*275 LE_0A\.edge_mode
*276 LE_0A\.reset_mode
*277 LE_0A\.reset_val
*278 LE_0A\.sel_clk
*279 LE_0A\.sel_reset
*280 LE_0B\.config_data\[0\]
*281 LE_0B\.config_data\[10\]
*282 LE_0B\.config_data\[11\]
*283 LE_0B\.config_data\[12\]
*284 LE_0B\.config_data\[13\]
*285 LE_0B\.config_data\[14\]
*286 LE_0B\.config_data\[15\]
*287 LE_0B\.config_data\[16\]
*288 LE_0B\.config_data\[1\]
*289 LE_0B\.config_data\[2\]
*290 LE_0B\.config_data\[3\]
*291 LE_0B\.config_data\[4\]
*292 LE_0B\.config_data\[5\]
*293 LE_0B\.config_data\[6\]
*294 LE_0B\.config_data\[7\]
*295 LE_0B\.config_data\[8\]
*296 LE_0B\.config_data\[9\]
*297 LE_0B\.dff0_out
*298 LE_0B\.dff1_out
*299 LE_0B\.dff_out
*300 LE_0B\.edge_mode
*301 LE_0B\.reset_mode
*302 LE_0B\.reset_val
*303 LE_0B\.sel_clk
*304 LE_0B\.sel_reset
*305 LE_1A\.config_data\[0\]
*306 LE_1A\.config_data\[10\]
*307 LE_1A\.config_data\[11\]
*308 LE_1A\.config_data\[12\]
*309 LE_1A\.config_data\[13\]
*310 LE_1A\.config_data\[14\]
*311 LE_1A\.config_data\[15\]
*312 LE_1A\.config_data\[16\]
*313 LE_1A\.config_data\[1\]
*314 LE_1A\.config_data\[2\]
*315 LE_1A\.config_data\[3\]
*316 LE_1A\.config_data\[4\]
*317 LE_1A\.config_data\[5\]
*318 LE_1A\.config_data\[6\]
*319 LE_1A\.config_data\[7\]
*320 LE_1A\.config_data\[8\]
*321 LE_1A\.config_data\[9\]
*322 LE_1A\.dff0_out
*323 LE_1A\.dff1_out
*324 LE_1A\.dff_out
*325 LE_1A\.edge_mode
*326 LE_1A\.reset_mode
*327 LE_1A\.reset_val
*328 LE_1A\.sel_clk
*329 LE_1A\.sel_reset
*330 LE_1B\.config_data\[0\]
*331 LE_1B\.config_data\[10\]
*332 LE_1B\.config_data\[11\]
*333 LE_1B\.config_data\[12\]
*334 LE_1B\.config_data\[13\]
*335 LE_1B\.config_data\[14\]
*336 LE_1B\.config_data\[15\]
*337 LE_1B\.config_data\[16\]
*338 LE_1B\.config_data\[1\]
*339 LE_1B\.config_data\[2\]
*340 LE_1B\.config_data\[3\]
*341 LE_1B\.config_data\[4\]
*342 LE_1B\.config_data\[5\]
*343 LE_1B\.config_data\[6\]
*344 LE_1B\.config_data\[7\]
*345 LE_1B\.config_data\[8\]
*346 LE_1B\.config_data\[9\]
*347 LE_1B\.dff0_out
*348 LE_1B\.dff1_out
*349 LE_1B\.dff_out
*350 LE_1B\.edge_mode
*351 LE_1B\.reset_mode
*352 LE_1B\.reset_val
*353 LE_1B\.sel_clk
*354 LE_1B\.sel_reset
*355 SB0\.route_sel\[0\]
*356 SB0\.route_sel\[100\]
*357 SB0\.route_sel\[101\]
*358 SB0\.route_sel\[102\]
*359 SB0\.route_sel\[103\]
*360 SB0\.route_sel\[104\]
*361 SB0\.route_sel\[105\]
*362 SB0\.route_sel\[106\]
*363 SB0\.route_sel\[107\]
*364 SB0\.route_sel\[108\]
*365 SB0\.route_sel\[109\]
*366 SB0\.route_sel\[10\]
*367 SB0\.route_sel\[110\]
*368 SB0\.route_sel\[11\]
*369 SB0\.route_sel\[12\]
*370 SB0\.route_sel\[13\]
*371 SB0\.route_sel\[14\]
*372 SB0\.route_sel\[15\]
*373 SB0\.route_sel\[16\]
*374 SB0\.route_sel\[17\]
*375 SB0\.route_sel\[18\]
*376 SB0\.route_sel\[19\]
*377 SB0\.route_sel\[1\]
*378 SB0\.route_sel\[20\]
*379 SB0\.route_sel\[21\]
*380 SB0\.route_sel\[22\]
*381 SB0\.route_sel\[23\]
*382 SB0\.route_sel\[24\]
*383 SB0\.route_sel\[25\]
*384 SB0\.route_sel\[26\]
*385 SB0\.route_sel\[27\]
*386 SB0\.route_sel\[28\]
*387 SB0\.route_sel\[29\]
*388 SB0\.route_sel\[2\]
*389 SB0\.route_sel\[30\]
*390 SB0\.route_sel\[31\]
*391 SB0\.route_sel\[32\]
*392 SB0\.route_sel\[33\]
*393 SB0\.route_sel\[34\]
*394 SB0\.route_sel\[35\]
*395 SB0\.route_sel\[36\]
*396 SB0\.route_sel\[37\]
*397 SB0\.route_sel\[38\]
*398 SB0\.route_sel\[39\]
*399 SB0\.route_sel\[3\]
*400 SB0\.route_sel\[40\]
*401 SB0\.route_sel\[41\]
*402 SB0\.route_sel\[42\]
*403 SB0\.route_sel\[43\]
*404 SB0\.route_sel\[44\]
*405 SB0\.route_sel\[45\]
*406 SB0\.route_sel\[46\]
*407 SB0\.route_sel\[47\]
*408 SB0\.route_sel\[48\]
*409 SB0\.route_sel\[49\]
*410 SB0\.route_sel\[4\]
*411 SB0\.route_sel\[50\]
*412 SB0\.route_sel\[51\]
*413 SB0\.route_sel\[52\]
*414 SB0\.route_sel\[53\]
*415 SB0\.route_sel\[54\]
*416 SB0\.route_sel\[55\]
*417 SB0\.route_sel\[56\]
*418 SB0\.route_sel\[57\]
*419 SB0\.route_sel\[58\]
*420 SB0\.route_sel\[59\]
*421 SB0\.route_sel\[5\]
*422 SB0\.route_sel\[60\]
*423 SB0\.route_sel\[61\]
*424 SB0\.route_sel\[62\]
*425 SB0\.route_sel\[63\]
*426 SB0\.route_sel\[64\]
*427 SB0\.route_sel\[65\]
*428 SB0\.route_sel\[66\]
*429 SB0\.route_sel\[67\]
*430 SB0\.route_sel\[68\]
*431 SB0\.route_sel\[69\]
*432 SB0\.route_sel\[6\]
*433 SB0\.route_sel\[70\]
*434 SB0\.route_sel\[71\]
*435 SB0\.route_sel\[72\]
*436 SB0\.route_sel\[73\]
*437 SB0\.route_sel\[74\]
*438 SB0\.route_sel\[75\]
*439 SB0\.route_sel\[76\]
*440 SB0\.route_sel\[77\]
*441 SB0\.route_sel\[78\]
*442 SB0\.route_sel\[79\]
*443 SB0\.route_sel\[7\]
*444 SB0\.route_sel\[80\]
*445 SB0\.route_sel\[81\]
*446 SB0\.route_sel\[82\]
*447 SB0\.route_sel\[83\]
*448 SB0\.route_sel\[84\]
*449 SB0\.route_sel\[85\]
*450 SB0\.route_sel\[86\]
*451 SB0\.route_sel\[87\]
*452 SB0\.route_sel\[88\]
*453 SB0\.route_sel\[89\]
*454 SB0\.route_sel\[8\]
*455 SB0\.route_sel\[90\]
*456 SB0\.route_sel\[91\]
*457 SB0\.route_sel\[92\]
*458 SB0\.route_sel\[93\]
*459 SB0\.route_sel\[94\]
*460 SB0\.route_sel\[95\]
*461 SB0\.route_sel\[96\]
*462 SB0\.route_sel\[97\]
*463 SB0\.route_sel\[98\]
*464 SB0\.route_sel\[99\]
*465 SB0\.route_sel\[9\]
*466 _0000_
*467 _0001_
*468 _0002_
*469 _0003_
*470 _0004_
*471 _0005_
*472 _0006_
*473 _0007_
*474 _0008_
*475 _0009_
*476 _0010_
*477 _0011_
*478 _0012_
*479 _0013_
*480 _0014_
*481 _0015_
*482 _0016_
*483 _0017_
*484 _0018_
*485 _0019_
*486 _0020_
*487 _0021_
*488 _0022_
*489 _0023_
*490 _0024_
*491 _0025_
*492 _0026_
*493 _0027_
*494 _0028_
*495 _0029_
*496 _0030_
*497 _0031_
*498 _0032_
*499 _0033_
*500 _0034_
*501 _0035_
*502 _0036_
*503 _0037_
*504 _0038_
*505 _0039_
*506 _0040_
*507 _0041_
*508 _0042_
*509 _0043_
*510 _0044_
*511 _0045_
*512 _0046_
*513 _0047_
*514 _0048_
*515 _0049_
*516 _0050_
*517 _0051_
*518 _0052_
*519 _0053_
*520 _0054_
*521 _0055_
*522 _0056_
*523 _0057_
*524 _0058_
*525 _0059_
*526 _0060_
*527 _0061_
*528 _0062_
*529 _0063_
*530 _0064_
*531 _0065_
*532 _0066_
*533 _0067_
*534 _0068_
*535 _0069_
*536 _0070_
*537 _0071_
*538 _0072_
*539 _0073_
*540 _0074_
*541 _0075_
*542 _0076_
*543 _0077_
*544 _0078_
*545 _0079_
*546 _0080_
*547 _0081_
*548 _0082_
*549 _0083_
*550 _0084_
*551 _0085_
*552 _0086_
*553 _0087_
*554 _0088_
*555 _0089_
*556 _0090_
*557 _0091_
*558 _0092_
*559 _0093_
*560 _0094_
*561 _0095_
*562 _0096_
*563 _0097_
*564 _0098_
*565 _0099_
*566 _0100_
*567 _0101_
*568 _0102_
*569 _0103_
*570 _0104_
*571 _0105_
*572 _0106_
*573 _0107_
*574 _0108_
*575 _0109_
*576 _0110_
*577 _0111_
*578 _0112_
*579 _0113_
*580 _0114_
*581 _0115_
*582 _0116_
*583 _0117_
*584 _0118_
*585 _0119_
*586 _0120_
*587 _0121_
*588 _0122_
*589 _0123_
*590 _0124_
*591 _0125_
*592 _0126_
*593 _0127_
*594 _0128_
*595 _0129_
*596 _0130_
*597 _0131_
*598 _0132_
*599 _0133_
*600 _0134_
*601 _0135_
*602 _0136_
*603 _0137_
*604 _0138_
*605 _0139_
*606 _0140_
*607 _0141_
*608 _0142_
*609 _0143_
*610 _0144_
*611 _0145_
*612 _0146_
*613 _0147_
*614 _0148_
*615 _0149_
*616 _0150_
*617 _0151_
*618 _0152_
*619 _0153_
*620 _0154_
*621 _0155_
*622 _0156_
*623 _0157_
*624 _0158_
*625 _0159_
*626 _0160_
*627 _0161_
*628 _0162_
*629 _0163_
*630 _0164_
*631 _0165_
*632 _0166_
*633 _0167_
*634 _0168_
*635 _0169_
*636 _0170_
*637 _0171_
*638 _0172_
*639 _0173_
*640 _0174_
*641 _0175_
*642 _0176_
*643 _0177_
*644 _0178_
*645 _0179_
*646 _0180_
*647 _0181_
*648 _0182_
*649 _0183_
*650 _0184_
*651 _0185_
*652 _0186_
*653 _0187_
*654 _0188_
*655 _0189_
*656 _0190_
*657 _0191_
*658 _0192_
*659 _0193_
*660 _0194_
*661 _0195_
*662 _0196_
*663 _0197_
*664 _0198_
*665 _0199_
*666 _0200_
*667 _0201_
*668 _0202_
*669 _0203_
*670 _0204_
*671 _0205_
*672 _0206_
*673 _0207_
*674 _0208_
*675 _0209_
*676 _0210_
*677 _0211_
*678 _0212_
*679 _0213_
*680 _0214_
*681 _0215_
*682 _0216_
*683 _0217_
*684 _0218_
*685 _0219_
*686 _0220_
*687 _0221_
*688 _0222_
*689 _0223_
*690 _0224_
*691 _0225_
*692 _0226_
*693 _0227_
*694 _0228_
*695 _0229_
*696 _0230_
*697 _0231_
*698 _0232_
*699 _0233_
*700 _0234_
*701 _0235_
*702 _0236_
*703 _0237_
*704 _0238_
*705 _0239_
*706 _0240_
*707 _0241_
*708 _0242_
*709 _0243_
*710 _0244_
*711 _0245_
*712 _0246_
*713 _0247_
*714 _0248_
*715 _0249_
*716 _0250_
*717 _0251_
*718 _0252_
*719 _0253_
*720 _0254_
*721 _0255_
*722 _0256_
*723 _0257_
*724 _0258_
*725 _0259_
*726 _0260_
*727 _0261_
*728 _0262_
*729 _0263_
*730 _0264_
*731 _0265_
*732 _0266_
*733 _0267_
*734 _0268_
*735 _0269_
*736 _0270_
*737 _0271_
*738 _0272_
*739 _0273_
*740 _0274_
*741 _0275_
*742 _0276_
*743 _0277_
*744 _0278_
*745 _0279_
*746 _0280_
*747 _0281_
*748 _0282_
*749 _0283_
*750 _0284_
*751 _0285_
*752 _0286_
*753 _0287_
*754 _0288_
*755 _0289_
*756 _0290_
*757 _0291_
*758 _0292_
*759 _0293_
*760 _0294_
*761 _0295_
*762 _0296_
*763 _0297_
*764 _0298_
*765 _0299_
*766 _0300_
*767 _0301_
*768 _0302_
*769 _0303_
*770 _0304_
*771 _0305_
*772 _0306_
*773 _0307_
*774 _0308_
*775 _0309_
*776 _0310_
*777 _0311_
*778 _0312_
*779 _0313_
*780 _0314_
*781 _0315_
*782 _0316_
*783 _0317_
*784 _0318_
*785 _0319_
*786 _0320_
*787 _0321_
*788 _0322_
*789 _0323_
*790 _0324_
*791 _0325_
*792 _0326_
*793 _0327_
*794 _0328_
*795 _0329_
*796 _0330_
*797 _0331_
*798 _0332_
*799 _0333_
*800 _0334_
*801 _0335_
*802 _0336_
*803 _0337_
*804 _0338_
*805 _0339_
*806 _0340_
*807 _0341_
*808 _0342_
*809 _0343_
*810 _0344_
*811 _0345_
*812 _0346_
*813 _0347_
*814 _0348_
*815 _0349_
*816 _0350_
*817 _0351_
*818 _0352_
*819 _0353_
*820 _0354_
*821 _0355_
*822 _0356_
*823 _0357_
*824 _0358_
*825 _0359_
*826 _0360_
*827 _0361_
*828 _0362_
*829 _0363_
*830 _0364_
*831 _0365_
*832 _0366_
*833 _0367_
*834 _0368_
*835 _0369_
*836 _0370_
*837 _0371_
*838 _0372_
*839 _0373_
*840 _0374_
*841 _0375_
*842 _0376_
*843 _0377_
*844 _0378_
*845 _0379_
*846 _0380_
*847 _0381_
*848 _0382_
*849 _0383_
*850 _0384_
*851 _0385_
*852 _0386_
*853 _0387_
*854 _0388_
*855 _0389_
*856 _0390_
*857 _0391_
*858 _0392_
*859 _0393_
*860 _0394_
*861 _0395_
*862 _0396_
*863 _0397_
*864 _0398_
*865 _0399_
*866 _0400_
*867 _0401_
*868 _0402_
*869 _0403_
*870 _0404_
*871 _0405_
*872 _0406_
*873 _0407_
*874 _0408_
*875 _0409_
*876 _0410_
*877 _0411_
*878 _0412_
*879 _0413_
*880 _0414_
*881 _0415_
*882 _0416_
*883 _0417_
*884 _0418_
*885 _0419_
*886 _0420_
*887 _0421_
*888 _0422_
*889 _0423_
*890 _0424_
*891 _0425_
*892 _0426_
*893 _0427_
*894 _0428_
*895 _0429_
*896 _0430_
*897 _0431_
*898 _0432_
*899 _0433_
*900 _0434_
*901 _0435_
*902 _0436_
*903 _0437_
*904 _0438_
*905 _0439_
*906 _0440_
*907 _0441_
*908 _0442_
*909 _0443_
*910 _0444_
*911 _0445_
*912 _0446_
*913 _0447_
*914 _0448_
*915 _0449_
*916 _0450_
*917 _0451_
*918 _0452_
*919 _0453_
*920 _0454_
*921 _0455_
*922 _0456_
*923 _0457_
*924 _0458_
*925 _0459_
*926 _0460_
*927 _0461_
*928 _0462_
*929 _0463_
*930 _0464_
*931 _0465_
*932 _0466_
*933 _0467_
*934 _0468_
*935 _0469_
*936 _0470_
*937 _0471_
*938 _0472_
*939 _0473_
*940 _0474_
*941 _0475_
*942 _0476_
*943 _0477_
*944 _0478_
*945 _0479_
*946 _0480_
*947 _0481_
*948 _0482_
*949 _0483_
*950 _0484_
*951 _0485_
*952 _0486_
*953 _0487_
*954 _0488_
*955 _0489_
*956 _0490_
*957 _0491_
*958 _0492_
*959 _0493_
*960 _0494_
*961 _0495_
*962 _0496_
*963 _0497_
*964 _0498_
*965 _0499_
*966 _0500_
*967 _0501_
*968 _0502_
*969 _0503_
*970 _0504_
*971 _0505_
*972 _0506_
*973 _0507_
*974 _0508_
*975 _0509_
*976 _0510_
*977 _0511_
*978 _0512_
*979 _0513_
*980 _0514_
*981 _0515_
*982 _0516_
*983 _0517_
*984 _0518_
*985 _0519_
*986 _0520_
*987 _0521_
*988 _0522_
*989 _0523_
*990 _0524_
*991 _0525_
*992 _0526_
*993 _0527_
*994 _0528_
*995 _0529_
*996 _0530_
*997 _0531_
*998 _0532_
*999 _0533_
*1000 _0534_
*1001 _0535_
*1002 _0536_
*1003 _0537_
*1004 _0538_
*1005 _0539_
*1006 _0540_
*1007 _0541_
*1008 _0542_
*1009 _0543_
*1010 _0544_
*1011 _0545_
*1012 _0546_
*1013 _0547_
*1014 _0548_
*1015 _0549_
*1016 _0550_
*1017 _0551_
*1018 _0552_
*1019 _0553_
*1020 _0554_
*1021 _0555_
*1022 _0556_
*1023 _0557_
*1024 _0558_
*1025 _0559_
*1026 _0560_
*1027 _0561_
*1028 _0562_
*1029 _0563_
*1030 _0564_
*1031 _0565_
*1032 _0566_
*1033 _0567_
*1034 _0568_
*1035 _0569_
*1036 _0570_
*1037 _0571_
*1038 _0572_
*1039 _0573_
*1040 _0574_
*1041 _0575_
*1042 _0576_
*1043 _0577_
*1044 _0578_
*1045 _0579_
*1046 _0580_
*1047 _0581_
*1048 _0582_
*1049 _0583_
*1050 _0584_
*1051 _0585_
*1052 _0586_
*1053 _0587_
*1054 _0588_
*1055 _0589_
*1056 _0590_
*1057 _0591_
*1058 _0592_
*1059 _0593_
*1060 _0594_
*1061 _0595_
*1062 _0596_
*1063 _0597_
*1064 _0598_
*1065 _0599_
*1066 _0600_
*1067 _0601_
*1068 _0602_
*1069 _0603_
*1070 _0604_
*1071 _0605_
*1072 _0606_
*1073 _0607_
*1074 _0608_
*1075 _0609_
*1076 _0610_
*1077 _0611_
*1078 _0612_
*1079 _0613_
*1080 _0614_
*1081 _0615_
*1082 _0616_
*1083 _0617_
*1084 _0618_
*1085 _0619_
*1086 _0620_
*1087 _0621_
*1088 _0622_
*1089 _0623_
*1090 _0624_
*1091 _0625_
*1092 _0626_
*1093 _0627_
*1094 _0628_
*1095 _0629_
*1096 _0630_
*1097 _0631_
*1098 _0632_
*1099 _0633_
*1100 _0634_
*1101 _0635_
*1102 _0636_
*1103 _0637_
*1104 _0638_
*1105 _0639_
*1106 _0640_
*1107 _0641_
*1108 _0642_
*1109 _0643_
*1110 _0644_
*1111 _0645_
*1112 _0646_
*1113 _0647_
*1114 _0648_
*1115 _0649_
*1116 _0650_
*1117 _0651_
*1118 _0652_
*1119 _0653_
*1120 _0654_
*1121 _0655_
*1122 _0656_
*1123 _0657_
*1124 _0658_
*1125 _0659_
*1126 _0660_
*1127 _0661_
*1128 _0662_
*1129 _0663_
*1130 _0664_
*1131 _0665_
*1132 _0666_
*1133 _0667_
*1134 _0668_
*1135 _0669_
*1136 _0670_
*1137 _0671_
*1138 _0672_
*1139 _0673_
*1140 _0674_
*1141 _0675_
*1142 _0676_
*1143 _0677_
*1144 _0678_
*1145 _0679_
*1146 _0680_
*1147 _0681_
*1148 _0682_
*1149 _0683_
*1150 _0684_
*1151 _0685_
*1152 _0686_
*1153 _0687_
*1154 _0688_
*1155 _0689_
*1156 _0690_
*1157 _0691_
*1158 _0692_
*1159 _0693_
*1160 _0694_
*1161 _0695_
*1162 _0696_
*1163 _0697_
*1164 _0698_
*1165 _0699_
*1166 _0700_
*1167 _0701_
*1168 _0702_
*1169 _0703_
*1170 _0704_
*1171 _0705_
*1172 _0706_
*1173 _0707_
*1174 _0708_
*1175 _0709_
*1176 _0710_
*1177 _0711_
*1178 _0712_
*1179 _0713_
*1180 _0714_
*1181 _0715_
*1182 _0716_
*1183 _0717_
*1184 _0718_
*1185 _0719_
*1186 _0720_
*1187 _0721_
*1188 _0722_
*1189 _0723_
*1190 _0724_
*1191 _0725_
*1192 _0726_
*1193 _0727_
*1194 _0728_
*1195 _0729_
*1196 _0730_
*1197 _0731_
*1198 _0732_
*1199 _0733_
*1200 _0734_
*1201 _0735_
*1202 _0736_
*1203 _0737_
*1204 _0738_
*1205 _0739_
*1206 _0740_
*1207 _0741_
*1208 _0742_
*1209 _0743_
*1210 _0744_
*1211 _0745_
*1212 _0746_
*1213 _0747_
*1214 _0748_
*1215 _0749_
*1216 _0750_
*1217 _0751_
*1218 _0752_
*1219 _0753_
*1220 _0754_
*1221 _0755_
*1222 _0756_
*1223 _0757_
*1224 _0758_
*1225 _0759_
*1226 _0760_
*1227 _0761_
*1228 _0762_
*1229 _0763_
*1230 _0764_
*1231 _0765_
*1232 _0766_
*1233 _0767_
*1234 _0768_
*1235 _0769_
*1236 _0770_
*1237 _0771_
*1238 _0772_
*1239 _0773_
*1240 _0774_
*1241 _0775_
*1242 _0776_
*1243 _0777_
*1244 _0778_
*1245 _0779_
*1246 _0780_
*1247 _0781_
*1248 _0782_
*1249 _0783_
*1250 _0784_
*1251 _0785_
*1252 _0786_
*1253 _0787_
*1254 _0788_
*1255 _0789_
*1256 _0790_
*1257 _0791_
*1258 _0792_
*1259 _0793_
*1260 _0794_
*1261 _0795_
*1262 _0796_
*1263 _0797_
*1264 _0798_
*1265 _0799_
*1266 _0800_
*1267 _0801_
*1268 _0802_
*1269 _0803_
*1270 _0804_
*1271 _0805_
*1272 _0806_
*1273 _0807_
*1274 _0808_
*1275 _0809_
*1276 _0810_
*1277 _0811_
*1278 _0812_
*1279 _0813_
*1280 _0814_
*1281 _0815_
*1282 _0816_
*1283 _0817_
*1284 _0818_
*1285 _0819_
*1286 _0820_
*1287 _0821_
*1288 _0822_
*1289 _0823_
*1290 _0824_
*1291 _0825_
*1292 _0826_
*1293 _0827_
*1294 _0828_
*1295 _0829_
*1296 _0830_
*1297 _0831_
*1298 _0832_
*1299 _0833_
*1300 _0834_
*1301 _0835_
*1302 _0836_
*1303 _0837_
*1304 _0838_
*1305 _0839_
*1306 _0840_
*1307 _0841_
*1308 _0842_
*1309 _0843_
*1310 _0844_
*1311 _0845_
*1312 _0846_
*1313 _0847_
*1314 _0848_
*1315 _0849_
*1316 _0850_
*1317 _0851_
*1318 _0852_
*1319 _0853_
*1320 _0854_
*1321 _0855_
*1322 _0856_
*1323 _0857_
*1324 _0858_
*1325 _0859_
*1326 _0860_
*1327 _0861_
*1328 _0862_
*1329 _0863_
*1330 _0864_
*1331 _0865_
*1332 _0866_
*1333 _0867_
*1334 _0868_
*1335 _0869_
*1336 _0870_
*1337 _0871_
*1338 _0872_
*1339 _0873_
*1340 _0874_
*1341 _0875_
*1342 _0876_
*1343 _0877_
*1344 _0878_
*1345 _0879_
*1346 _0880_
*1347 _0881_
*1348 _0882_
*1349 _0883_
*1350 _0884_
*1351 _0885_
*1352 _0886_
*1353 _0887_
*1354 _0888_
*1355 _0889_
*1356 _0890_
*1357 _0891_
*1358 _0892_
*1359 _0893_
*1360 _0894_
*1361 _0895_
*1362 _0896_
*1363 _0897_
*1364 _0898_
*1365 _0899_
*1366 _0900_
*1367 _0901_
*1368 _0902_
*1369 _0903_
*1370 _0904_
*1371 _0905_
*1372 _0906_
*1373 _0907_
*1374 _0908_
*1375 _0909_
*1376 _0910_
*1377 _0911_
*1378 _0912_
*1379 _0913_
*1380 _0914_
*1381 _0915_
*1382 _0916_
*1383 _0917_
*1384 _0918_
*1385 _0919_
*1386 _0920_
*1387 _0921_
*1388 _0922_
*1389 _0923_
*1390 _0924_
*1391 _0925_
*1392 _0926_
*1393 _0927_
*1394 _0928_
*1395 _0929_
*1396 _0930_
*1397 _0931_
*1398 _0932_
*1399 _0933_
*1400 _0934_
*1401 _0935_
*1402 _0936_
*1403 _0937_
*1404 _0938_
*1405 _0939_
*1406 _0940_
*1407 _0941_
*1408 _0942_
*1409 _0943_
*1410 _0944_
*1411 _0945_
*1412 _0946_
*1413 _0947_
*1414 _0948_
*1415 _0949_
*1416 _0950_
*1417 _0951_
*1418 _0952_
*1419 _0953_
*1420 _0954_
*1421 _0955_
*1422 _0956_
*1423 _0957_
*1424 _0958_
*1425 _0959_
*1426 _0960_
*1427 _0961_
*1428 _0962_
*1429 _0963_
*1430 _0964_
*1431 _0965_
*1432 _0966_
*1433 _0967_
*1434 _0968_
*1435 _0969_
*1436 _0970_
*1437 _0971_
*1438 _0972_
*1439 _0973_
*1440 _0974_
*1441 _0975_
*1442 _0976_
*1443 _0977_
*1444 _0978_
*1445 _0979_
*1446 _0980_
*1447 _0981_
*1448 _0982_
*1449 _0983_
*1450 _0984_
*1451 _0985_
*1452 _0986_
*1453 _0987_
*1454 _0988_
*1455 _0989_
*1456 _0990_
*1457 _0991_
*1458 _0992_
*1459 _0993_
*1460 _0994_
*1461 _0995_
*1462 _0996_
*1463 _0997_
*1464 _0998_
*1465 _0999_
*1466 _1000_
*1467 _1001_
*1468 _1002_
*1469 _1003_
*1470 _1004_
*1471 _1005_
*1472 _1006_
*1473 _1007_
*1474 _1008_
*1475 _1009_
*1476 _1010_
*1477 _1011_
*1478 _1012_
*1479 _1013_
*1480 _1014_
*1481 _1015_
*1482 _1016_
*1483 _1017_
*1484 _1018_
*1485 _1019_
*1486 _1020_
*1487 _1021_
*1488 _1022_
*1489 _1023_
*1490 _1024_
*1491 _1025_
*1492 _1026_
*1493 _1027_
*1494 _1028_
*1495 _1029_
*1496 _1030_
*1497 _1031_
*1498 _1032_
*1499 _1033_
*1500 _1034_
*1501 _1035_
*1502 _1036_
*1503 _1037_
*1504 _1038_
*1505 _1039_
*1506 _1040_
*1507 _1041_
*1508 _1042_
*1509 _1043_
*1510 _1044_
*1511 _1045_
*1512 _1046_
*1513 _1047_
*1514 _1048_
*1515 _1049_
*1516 _1050_
*1517 _1051_
*1518 _1052_
*1519 _1053_
*1520 _1054_
*1521 _1055_
*1522 _1056_
*1523 _1057_
*1524 _1058_
*1525 _1059_
*1526 _1060_
*1527 _1061_
*1528 _1062_
*1529 _1063_
*1530 _1064_
*1531 _1065_
*1532 _1066_
*1533 _1067_
*1534 _1068_
*1535 _1069_
*1536 _1070_
*1537 _1071_
*1538 _1072_
*1539 _1073_
*1540 _1074_
*1541 _1075_
*1542 _1076_
*1543 _1077_
*1544 _1078_
*1545 _1079_
*1546 _1080_
*1547 _1081_
*1548 _1082_
*1549 _1083_
*1550 _1084_
*1551 _1085_
*1552 _1086_
*1553 _1087_
*1554 _1088_
*1555 _1089_
*1556 _1090_
*1557 _1091_
*1558 _1092_
*1559 _1093_
*1560 _1094_
*1561 _1095_
*1562 _1096_
*1563 _1097_
*1564 _1098_
*1565 _1099_
*1566 _1100_
*1567 _1101_
*1568 _1102_
*1569 _1103_
*1570 _1104_
*1571 _1105_
*1572 _1106_
*1573 _1107_
*1574 _1108_
*1575 _1109_
*1576 _1110_
*1577 _1111_
*1578 _1112_
*1579 _1113_
*1580 _1114_
*1581 _1115_
*1582 _1116_
*1583 _1117_
*1584 _1118_
*1585 _1119_
*1586 _1120_
*1587 _1121_
*1588 _1122_
*1589 _1123_
*1590 _1124_
*1591 _1125_
*1592 _1126_
*1593 _1127_
*1594 _1128_
*1595 _1129_
*1596 _1130_
*1597 _1131_
*1598 _1132_
*1599 _1133_
*1600 _1134_
*1601 _1135_
*1602 _1136_
*1603 _1137_
*1604 _1138_
*1605 _1139_
*1606 _1140_
*1607 _1141_
*1608 _1142_
*1609 _1143_
*1610 _1144_
*1611 _1145_
*1612 _1146_
*1613 _1147_
*1614 _1148_
*1615 _1149_
*1616 _1150_
*1617 _1151_
*1618 _1152_
*1619 _1153_
*1620 _1154_
*1621 _1155_
*1622 _1156_
*1623 _1157_
*1624 _1158_
*1625 _1159_
*1626 _1160_
*1627 _1161_
*1628 _1162_
*1629 _1163_
*1630 _1164_
*1631 _1165_
*1632 _1166_
*1633 _1167_
*1634 _1168_
*1635 _1169_
*1636 _1170_
*1637 _1171_
*1638 _1172_
*1639 _1173_
*1640 _1174_
*1641 _1175_
*1642 _1176_
*1643 _1177_
*1644 _1178_
*1645 _1179_
*1646 _1180_
*1647 _1181_
*1648 _1182_
*1649 _1183_
*1650 _1184_
*1651 _1185_
*1652 _1186_
*1653 _1187_
*1654 _1188_
*1655 _1189_
*1656 _1190_
*1657 _1191_
*1658 _1192_
*1659 _1193_
*1660 _1194_
*1661 _1195_
*1662 _1196_
*1663 _1197_
*1664 _1198_
*1665 _1199_
*1666 _1200_
*1667 _1201_
*1668 _1202_
*1669 _1203_
*1670 _1204_
*1671 _1205_
*1672 _1206_
*1673 _1207_
*1674 _1208_
*1675 _1209_
*1676 _1210_
*1677 _1211_
*1678 _1212_
*1679 _1213_
*1680 _1214_
*1681 _1215_
*1682 _1216_
*1683 _1217_
*1684 _1218_
*1685 _1219_
*1686 _1220_
*1687 _1221_
*1688 _1222_
*1689 _1223_
*1690 _1224_
*1691 _1225_
*1692 _1226_
*1693 _1227_
*1694 _1228_
*1695 _1229_
*1696 _1230_
*1697 _1231_
*1698 _1232_
*1699 _1233_
*1700 _1234_
*1701 _1235_
*1702 _1236_
*1703 _1237_
*1704 _1238_
*1705 _1239_
*1706 _1240_
*1707 _1241_
*1708 _1242_
*1709 _1243_
*1710 _1244_
*1711 _1245_
*1712 _1246_
*1713 _1247_
*1714 _1248_
*1715 _1249_
*1716 _1250_
*1717 _1251_
*1718 _1252_
*1719 _1253_
*1720 _1254_
*1721 _1255_
*1722 _1256_
*1723 _1257_
*1724 _1258_
*1725 _1259_
*1726 _1260_
*1727 _1261_
*1728 _1262_
*1729 _1263_
*1730 _1264_
*1731 _1265_
*1732 _1266_
*1733 _1267_
*1734 _1268_
*1735 _1269_
*1736 _1270_
*1737 _1271_
*1738 _1272_
*1739 _1273_
*1740 _1274_
*1741 _1275_
*1742 _1276_
*1743 _1277_
*1744 _1278_
*1745 _1279_
*1746 _1280_
*1747 _1281_
*1748 _1282_
*1749 _1283_
*1750 _1284_
*1751 _1285_
*1752 _1286_
*1753 _1287_
*1754 _1288_
*1755 _1289_
*1756 _1290_
*1757 _1291_
*1758 _1292_
*1759 _1293_
*1760 _1294_
*1761 _1295_
*1762 _1296_
*1763 _1297_
*1764 _1298_
*1765 _1299_
*1766 _1300_
*1767 _1301_
*1768 _1302_
*1769 _1303_
*1770 _1304_
*1771 _1305_
*1772 _1306_
*1773 _1307_
*1774 _1308_
*1775 _1309_
*1776 _1310_
*1777 _1311_
*1778 _1312_
*1779 _1313_
*1780 _1314_
*1781 _1315_
*1782 _1316_
*1783 _1317_
*1784 _1318_
*1785 _1319_
*1786 _1320_
*1787 _1321_
*1788 _1322_
*1789 _1323_
*1790 _1324_
*1791 _1325_
*1792 _1326_
*1793 _1327_
*1794 _1328_
*1795 _1329_
*1796 _1330_
*1797 _1331_
*1798 _1332_
*1799 _1333_
*1800 _1334_
*1801 _1335_
*1802 _1336_
*1803 _1337_
*1804 _1338_
*1805 _1339_
*1806 _1340_
*1807 _1341_
*1808 _1342_
*1809 _1343_
*1810 _1344_
*1811 _1345_
*1812 _1346_
*1813 _1347_
*1814 _1348_
*1815 _1349_
*1816 _1350_
*1817 _1351_
*1818 _1352_
*1819 _1353_
*1820 _1354_
*1821 _1355_
*1822 _1356_
*1823 _1357_
*1824 _1358_
*1825 _1359_
*1826 clknet_0_clk
*1827 clknet_2_0__leaf_clk
*1828 clknet_2_1__leaf_clk
*1829 clknet_2_2__leaf_clk
*1830 clknet_2_3__leaf_clk
*1831 clknet_leaf_0_clk
*1832 clknet_leaf_10_clk
*1833 clknet_leaf_11_clk
*1834 clknet_leaf_12_clk
*1835 clknet_leaf_13_clk
*1836 clknet_leaf_14_clk
*1837 clknet_leaf_15_clk
*1838 clknet_leaf_16_clk
*1839 clknet_leaf_17_clk
*1840 clknet_leaf_18_clk
*1841 clknet_leaf_19_clk
*1842 clknet_leaf_1_clk
*1843 clknet_leaf_20_clk
*1844 clknet_leaf_21_clk
*1845 clknet_leaf_22_clk
*1846 clknet_leaf_23_clk
*1847 clknet_leaf_24_clk
*1848 clknet_leaf_25_clk
*1849 clknet_leaf_26_clk
*1850 clknet_leaf_27_clk
*1851 clknet_leaf_28_clk
*1852 clknet_leaf_29_clk
*1853 clknet_leaf_2_clk
*1854 clknet_leaf_3_clk
*1855 clknet_leaf_4_clk
*1856 clknet_leaf_5_clk
*1857 clknet_leaf_6_clk
*1858 clknet_leaf_7_clk
*1859 clknet_leaf_8_clk
*1860 clknet_leaf_9_clk
*1861 net1
*1862 net10
*1863 net100
*1864 net101
*1865 net102
*1866 net103
*1867 net104