*SPEF "ieee 1481-1999"
*DESIGN "fpga"
*DATE "00:10:07 Wednesday July 16, 2025"
*VENDOR "The OpenROAD Project"
*PROGRAM "OpenROAD"
*VERSION "edf00dff99f6c40d67a30c0e22a8191c5d2ed9d6"
*DESIGN_FLOW "NAME_SCOPE LOCAL" "PIN_CAP NONE"
*DIVIDER /
*DELIMITER :
*BUS_DELIMITER []
*T_UNIT 1 NS
*C_UNIT 1 PF
*R_UNIT 1 OHM
*L_UNIT 1 HENRY

*NAME_MAP
*1 clk
*2 config_data_in
*3 config_data_out
*4 config_en
*5 io_east_in[0]
*6 io_east_in[10]
*7 io_east_in[11]
*8 io_east_in[12]
*9 io_east_in[13]
*10 io_east_in[14]
*11 io_east_in[15]
*12 io_east_in[16]
*13 io_east_in[17]
*14 io_east_in[18]
*15 io_east_in[19]
*16 io_east_in[1]
*17 io_east_in[20]
*18 io_east_in[21]
*19 io_east_in[22]
*20 io_east_in[23]
*21 io_east_in[24]
*22 io_east_in[25]
*23 io_east_in[26]
*24 io_east_in[27]
*25 io_east_in[28]
*26 io_east_in[29]
*27 io_east_in[2]
*28 io_east_in[30]
*29 io_east_in[31]
*30 io_east_in[3]
*31 io_east_in[4]
*32 io_east_in[5]
*33 io_east_in[6]
*34 io_east_in[7]
*35 io_east_in[8]
*36 io_east_in[9]
*37 io_east_out[0]
*38 io_east_out[10]
*39 io_east_out[11]
*40 io_east_out[12]
*41 io_east_out[13]
*42 net234
*43 net235
*44 io_east_out[16]
*45 io_east_out[17]
*46 io_east_out[18]
*47 io_east_out[19]
*48 io_east_out[1]
*49 io_east_out[20]
*50 io_east_out[21]
*51 io_east_out[22]
*52 io_east_out[23]
*53 io_east_out[24]
*54 io_east_out[25]
*55 io_east_out[26]
*56 io_east_out[27]
*57 io_east_out[28]
*58 io_east_out[29]
*59 io_east_out[2]
*60 net236
*61 net237
*62 io_east_out[3]
*63 io_east_out[4]
*64 io_east_out[5]
*65 io_east_out[6]
*66 io_east_out[7]
*67 io_east_out[8]
*68 io_east_out[9]
*69 io_north_in[0]
*70 io_north_in[10]
*71 io_north_in[11]
*72 io_north_in[12]
*73 io_north_in[13]
*74 io_north_in[14]
*75 io_north_in[15]
*76 io_north_in[16]
*77 io_north_in[17]
*78 io_north_in[18]
*79 io_north_in[19]
*80 io_north_in[1]
*81 io_north_in[20]
*82 io_north_in[21]
*83 io_north_in[22]
*84 io_north_in[23]
*85 io_north_in[24]
*86 io_north_in[25]
*87 io_north_in[26]
*88 io_north_in[27]
*89 io_north_in[28]
*90 io_north_in[29]
*91 io_north_in[2]
*92 io_north_in[30]
*93 io_north_in[31]
*94 io_north_in[3]
*95 io_north_in[4]
*96 io_north_in[5]
*97 io_north_in[6]
*98 io_north_in[7]
*99 io_north_in[8]
*100 io_north_in[9]
*101 io_north_out[0]
*102 io_north_out[10]
*103 io_north_out[11]
*104 io_north_out[12]
*105 io_north_out[13]
*106 net238
*107 net239
*108 io_north_out[16]
*109 io_north_out[17]
*110 io_north_out[18]
*111 io_north_out[19]
*112 io_north_out[1]
*113 io_north_out[20]
*114 io_north_out[21]
*115 io_north_out[22]
*116 io_north_out[23]
*117 io_north_out[24]
*118 io_north_out[25]
*119 io_north_out[26]
*120 io_north_out[27]
*121 io_north_out[28]
*122 io_north_out[29]
*123 io_north_out[2]
*124 net240
*125 net241
*126 io_north_out[3]
*127 io_north_out[4]
*128 io_north_out[5]
*129 io_north_out[6]
*130 io_north_out[7]
*131 io_north_out[8]
*132 io_north_out[9]
*133 io_south_in[0]
*134 io_south_in[10]
*135 io_south_in[11]
*136 io_south_in[12]
*137 io_south_in[13]
*138 io_south_in[14]
*139 io_south_in[15]
*140 io_south_in[16]
*141 io_south_in[17]
*142 io_south_in[18]
*143 io_south_in[19]
*144 io_south_in[1]
*145 io_south_in[20]
*146 io_south_in[21]
*147 io_south_in[22]
*148 io_south_in[23]
*149 io_south_in[24]
*150 io_south_in[25]
*151 io_south_in[26]
*152 io_south_in[27]
*153 io_south_in[28]
*154 io_south_in[29]
*155 io_south_in[2]
*156 io_south_in[30]
*157 io_south_in[31]
*158 io_south_in[3]
*159 io_south_in[4]
*160 io_south_in[5]
*161 io_south_in[6]
*162 io_south_in[7]
*163 io_south_in[8]
*164 io_south_in[9]
*165 io_south_out[0]
*166 io_south_out[10]
*167 io_south_out[11]
*168 io_south_out[12]
*169 io_south_out[13]
*170 net242
*171 net243
*172 io_south_out[16]
*173 io_south_out[17]
*174 io_south_out[18]
*175 io_south_out[19]
*176 io_south_out[1]
*177 io_south_out[20]
*178 io_south_out[21]
*179 io_south_out[22]
*180 io_south_out[23]
*181 io_south_out[24]
*182 io_south_out[25]
*183 io_south_out[26]
*184 io_south_out[27]
*185 io_south_out[28]
*186 io_south_out[29]
*187 io_south_out[2]
*188 net244
*189 net245
*190 io_south_out[3]
*191 io_south_out[4]
*192 io_south_out[5]
*193 io_south_out[6]
*194 io_south_out[7]
*195 io_south_out[8]
*196 io_south_out[9]
*197 io_west_in[0]
*198 io_west_in[10]
*199 io_west_in[11]
*200 io_west_in[12]
*201 io_west_in[13]
*202 io_west_in[14]
*203 io_west_in[15]
*204 io_west_in[16]
*205 io_west_in[17]
*206 io_west_in[18]
*207 io_west_in[19]
*208 io_west_in[1]
*209 io_west_in[20]
*210 io_west_in[21]
*211 io_west_in[22]
*212 io_west_in[23]
*213 io_west_in[24]
*214 io_west_in[25]
*215 io_west_in[26]
*216 io_west_in[27]
*217 io_west_in[28]
*218 io_west_in[29]
*219 io_west_in[2]
*220 io_west_in[30]
*221 io_west_in[31]
*222 io_west_in[3]
*223 io_west_in[4]
*224 io_west_in[5]
*225 io_west_in[6]
*226 io_west_in[7]
*227 io_west_in[8]
*228 io_west_in[9]
*229 io_west_out[0]
*230 io_west_out[10]
*231 io_west_out[11]
*232 io_west_out[12]
*233 io_west_out[13]
*234 net246
*235 net247
*236 io_west_out[16]
*237 io_west_out[17]
*238 io_west_out[18]
*239 io_west_out[19]
*240 io_west_out[1]
*241 io_west_out[20]
*242 io_west_out[21]
*243 io_west_out[22]
*244 io_west_out[23]
*245 io_west_out[24]
*246 io_west_out[25]
*247 io_west_out[26]
*248 io_west_out[27]
*249 io_west_out[28]
*250 io_west_out[29]
*251 io_west_out[2]
*252 net248
*253 net249
*254 io_west_out[3]
*255 io_west_out[4]
*256 io_west_out[5]
*257 io_west_out[6]
*258 io_west_out[7]
*259 io_west_out[8]
*260 io_west_out[9]
*261 le_clk
*262 le_en
*263 le_nrst
*264 nrst
*267 bus0_1\[0\]
*268 bus0_1\[10\]
*269 bus0_1\[11\]
*270 bus0_1\[12\]
*271 bus0_1\[13\]
*272 bus0_1\[1\]
*273 bus0_1\[2\]
*274 bus0_1\[3\]
*275 bus0_1\[4\]
*276 bus0_1\[5\]
*277 bus0_1\[6\]
*278 bus0_1\[7\]
*279 bus0_1\[8\]
*280 bus0_1\[9\]
*281 bus0_2\[0\]
*282 bus0_2\[10\]
*283 bus0_2\[11\]
*284 bus0_2\[12\]
*285 bus0_2\[13\]
*286 bus0_2\[1\]
*287 bus0_2\[2\]
*288 bus0_2\[3\]
*289 bus0_2\[4\]
*290 bus0_2\[5\]
*291 bus0_2\[6\]
*292 bus0_2\[7\]
*293 bus0_2\[8\]
*294 bus0_2\[9\]
*295 bus1_0\[0\]
*296 bus1_0\[10\]
*297 bus1_0\[11\]
*298 bus1_0\[12\]
*299 bus1_0\[13\]
*300 bus1_0\[1\]
*301 bus1_0\[2\]
*302 bus1_0\[3\]
*303 bus1_0\[4\]
*304 bus1_0\[5\]
*305 bus1_0\[6\]
*306 bus1_0\[7\]
*307 bus1_0\[8\]
*308 bus1_0\[9\]
*309 bus1_3\[0\]
*310 bus1_3\[10\]
*311 bus1_3\[11\]
*312 bus1_3\[12\]
*313 bus1_3\[13\]
*314 bus1_3\[1\]
*315 bus1_3\[2\]
*316 bus1_3\[3\]
*317 bus1_3\[4\]
*318 bus1_3\[5\]
*319 bus1_3\[6\]
*320 bus1_3\[7\]
*321 bus1_3\[8\]
*322 bus1_3\[9\]
*323 bus2_0\[0\]
*324 bus2_0\[10\]
*325 bus2_0\[11\]
*326 bus2_0\[12\]
*327 bus2_0\[13\]
*328 bus2_0\[1\]
*329 bus2_0\[2\]
*330 bus2_0\[3\]
*331 bus2_0\[4\]
*332 bus2_0\[5\]
*333 bus2_0\[6\]
*334 bus2_0\[7\]
*335 bus2_0\[8\]
*336 bus2_0\[9\]
*337 bus2_3\[0\]
*338 bus2_3\[10\]
*339 bus2_3\[11\]
*340 bus2_3\[12\]
*341 bus2_3\[13\]
*342 bus2_3\[1\]
*343 bus2_3\[2\]
*344 bus2_3\[3\]
*345 bus2_3\[4\]
*346 bus2_3\[5\]
*347 bus2_3\[6\]
*348 bus2_3\[7\]
*349 bus2_3\[8\]
*350 bus2_3\[9\]
*351 bus3_1\[0\]
*352 bus3_1\[10\]
*353 bus3_1\[11\]
*354 bus3_1\[12\]
*355 bus3_1\[13\]
*356 bus3_1\[1\]
*357 bus3_1\[2\]
*358 bus3_1\[3\]
*359 bus3_1\[4\]
*360 bus3_1\[5\]
*361 bus3_1\[6\]
*362 bus3_1\[7\]
*363 bus3_1\[8\]
*364 bus3_1\[9\]
*365 bus3_2\[0\]
*366 bus3_2\[10\]
*367 bus3_2\[11\]
*368 bus3_2\[12\]
*369 bus3_2\[13\]
*370 bus3_2\[1\]
*371 bus3_2\[2\]
*372 bus3_2\[3\]
*373 bus3_2\[4\]
*374 bus3_2\[5\]
*375 bus3_2\[6\]
*376 bus3_2\[7\]
*377 bus3_2\[8\]
*378 bus3_2\[9\]
*379 cell0_cram_out
*380 cell1_cram_out
*381 cell2_cram_out
*382 clknet_0_clk
*383 clknet_1_0__leaf_clk
*384 clknet_1_1__leaf_clk
*385 net1
*386 net10
*387 net100
*388 net101
*389 net102
*390 net103
*391 net104
*392 net105
*393 net106
*394 net107
*395 net108
*396 net109
*397 net11
*398 net110
*399 net111
*400 net112
*401 net113
*402 net114
*403 net115
*404 net116
*405 net117
*406 net118
*407 net119
*408 net12
*409 net120
*410 net121
*411 net122
*412 net123
*413 net124
*414 net125
*415 net126
*416 net127
*417 net128
*418 net129
*419 net13
*420 net130
*421 net131
*422 net132
*423 net133
*424 net134
*425 net135
*426 net136
*427 net137
*428 net138
*429 net139
*430 net14
*431 net140
*432 net141
*433 net142
*434 net143
*435 net144
*436 net145
*437 net146
*438 net147
*439 net148
*440 net149
*441 net15
*442 net150
*443 net151
*444 net152
*445 net153
*446 net154
*447 net155
*448 net156
*449 net157
*450 net158
*451 net159
*452 net16
*453 net160
*454 net161
*455 net162
*456 net163
*457 net164
*458 net165
*459 net166
*460 net167
*461 net168
*462 net169
*463 net17
*464 net170
*465 net171
*466 net172
*467 net173
*468 net174
*469 net175
*470 net176
*471 net177
*472 net178
*473 net179
*474 net18
*475 net180
*476 net181
*477 net182
*478 net183
*479 net184
*480 net185
*481 net186
*482 net187
*483 net188
*484 net189
*485 net19
*486 net190
*487 net191
*488 net192
*489 net193
*490 net194
*491 net195
*492 net196
*493 net197
*494 net198
*495 net199
*496 net2
*497 net20
*498 net200
*499 net201
*500 net202
*501 net203
*502 net204
*503 net205
*504 net206
*505 net207
*506 net208
*507 net209
*508 net21
*509 net210
*510 net211
*511 net212
*512 net213
*513 net214
*514 net215
*515 net216
*516 net217
*517 net218
*518 net219
*519 net22
*520 net220
*521 net221
*522 net222
*523 net223
*524 net224
*525 net225
*526 net226
*527 net227
*528 net228
*529 net229
*530 net23
*531 net230
*532 net231
*533 net232
*534 net233
*535 net24
*536 net25
*537 net26
*538 net27
*539 net28
*540 net29
*541 net3
*542 net30
*543 net31
*544 net32
*545 net33
*546 net34
*547 net35
*548 net36
*549 net37
*550 net38
*551 net39
*552 net4
*553 net40
*554 net41
*555 net42
*556 net43
*557 net44
*558 net45
*559 net46
*560 net47
*561 net48
*562 net49
*563 net5
*564 net50
*565 net51
*566 net52
*567 net53
*568 net54
*569 net55
*570 net56
*571 net57
*572 net58
*573 net59
*574 net6
*575 net60
*576 net61
*577 net62
*578 net63
*579 net64
*580 net65
*581 net66
*582 net67
*583 net68
*584 net69
*585 net7
*586 net70
*587 net71
*588 net72
*589 net73
*590 net74
*591 net75
*592 net76
*593 net77
*594 net78
*595 net79
*596 net8
*597 net80
*598 net81
*599 net82
*600 net83
*601 net84
*602 net85
*603 net86
*604 net87
*605 net88
*606 net89
*607 net9
*608 net90
*609 net91
*610 net92
*611 net93
*612 net94
*613 net95
*614 net96
*615 net97
*616 net98
*617 net99
*618 ANTENNA_cell0_clk
*619 ANTENNA_cell0_config_data_out
*620 ANTENNA_cell0_config_en
*621 ANTENNA_cell0_le_clk
*622 ANTENNA_cell0_le_en
*623 ANTENNA_cell0_le_nrst
*624 ANTENNA_cell0_nrst
*625 ANTENNA_cell1_CBeast_in\[0\]
*626 ANTENNA_cell1_CBeast_in\[10\]
*627 ANTENNA_cell1_CBeast_in\[11\]
*628 ANTENNA_cell1_CBeast_in\[12\]
*629 ANTENNA_cell1_CBeast_in\[13\]
*630 ANTENNA_cell1_CBeast_in\[1\]
*631 ANTENNA_cell1_CBeast_in\[2\]
*632 ANTENNA_cell1_CBeast_in\[3\]
*633 ANTENNA_cell1_CBeast_in\[4\]
*634 ANTENNA_cell1_CBeast_in\[5\]
*635 ANTENNA_cell1_CBeast_in\[6\]
*636 ANTENNA_cell1_CBeast_in\[7\]
*637 ANTENNA_cell1_CBeast_in\[8\]
*638 ANTENNA_cell1_CBeast_in\[9\]
*639 ANTENNA_cell1_CBeast_out\[10\]
*640 ANTENNA_cell1_CBeast_out\[11\]
*641 ANTENNA_cell1_CBeast_out\[12\]
*642 ANTENNA_cell1_CBeast_out\[13\]
*643 ANTENNA_cell1_clk
*644 ANTENNA_cell1_config_data_in
*645 ANTENNA_cell1_config_data_out
*646 ANTENNA_cell1_config_en
*647 ANTENNA_cell1_le_clk
*648 ANTENNA_cell1_le_en
*649 ANTENNA_cell1_le_nrst
*650 ANTENNA_cell1_nrst
*651 ANTENNA_cell2_clk
*652 ANTENNA_cell2_config_data_in
*653 ANTENNA_cell2_config_data_out
*654 ANTENNA_cell2_config_en
*655 ANTENNA_cell2_le_clk
*656 ANTENNA_cell2_le_en
*657 ANTENNA_cell2_le_nrst
*658 ANTENNA_cell2_nrst
*659 ANTENNA_cell3_CBeast_in\[0\]
*660 ANTENNA_cell3_CBeast_in\[1\]
*661 ANTENNA_cell3_CBeast_in\[2\]
*662 ANTENNA_cell3_CBeast_in\[3\]
*663 ANTENNA_cell3_CBeast_out\[0\]
*664 ANTENNA_cell3_CBeast_out\[10\]
*665 ANTENNA_cell3_CBeast_out\[11\]
*666 ANTENNA_cell3_CBeast_out\[12\]
*667 ANTENNA_cell3_CBeast_out\[13\]
*668 ANTENNA_cell3_CBeast_out\[1\]
*669 ANTENNA_cell3_CBeast_out\[2\]
*670 ANTENNA_cell3_CBeast_out\[3\]
*671 ANTENNA_cell3_CBeast_out\[4\]
*672 ANTENNA_cell3_CBeast_out\[5\]
*673 ANTENNA_cell3_CBeast_out\[6\]
*674 ANTENNA_cell3_CBeast_out\[7\]
*675 ANTENNA_cell3_CBeast_out\[8\]
*676 ANTENNA_cell3_CBeast_out\[9\]
*677 ANTENNA_cell3_clk
*678 ANTENNA_cell3_config_data_in
*679 ANTENNA_cell3_config_data_out
*680 ANTENNA_cell3_config_en
*681 ANTENNA_cell3_le_clk
*682 ANTENNA_cell3_le_en
*683 ANTENNA_cell3_le_nrst
*684 ANTENNA_cell3_nrst
*685 ANTENNA_clkbuf_0_clk_A
*686 ANTENNA_clkbuf_0_clk_X
*687 ANTENNA_clkbuf_1_0__f_clk_A
*688 ANTENNA_clkbuf_1_0__f_clk_X
*689 ANTENNA_clkbuf_1_1__f_clk_A
*690 ANTENNA_clkbuf_1_1__f_clk_X
*691 ANTENNA_input100_A
*692 ANTENNA_input101_A
*693 ANTENNA_input102_A
*694 ANTENNA_input103_A
*695 ANTENNA_input104_A
*696 ANTENNA_input105_A
*697 ANTENNA_input106_A
*698 ANTENNA_input107_A
*699 ANTENNA_input108_A
*700 ANTENNA_input109_A
*701 ANTENNA_input10_A
*702 ANTENNA_input10_X
*703 ANTENNA_input110_A
*704 ANTENNA_input111_A
*705 ANTENNA_input112_A
*706 ANTENNA_input113_A
*707 ANTENNA_input114_A
*708 ANTENNA_input115_A
*709 ANTENNA_input115_X
*710 ANTENNA_input116_A
*711 ANTENNA_input116_X
*712 ANTENNA_input117_A
*713 ANTENNA_input117_X
*714 ANTENNA_input118_A
*715 ANTENNA_input118_X
*716 ANTENNA_input11_A
*717 ANTENNA_input11_X
*718 ANTENNA_input12_A
*719 ANTENNA_input12_X
*720 ANTENNA_input13_A
*721 ANTENNA_input14_A
*722 ANTENNA_input15_A
*723 ANTENNA_input16_A
*724 ANTENNA_input17_A
*725 ANTENNA_input18_A
*726 ANTENNA_input19_A
*727 ANTENNA_input1_A
*728 ANTENNA_input20_A
*729 ANTENNA_input21_A
*730 ANTENNA_input22_A
*731 ANTENNA_input23_A
*732 ANTENNA_input23_X
*733 ANTENNA_input24_A
*734 ANTENNA_input24_X
*735 ANTENNA_input25_A
*736 ANTENNA_input25_X
*737 ANTENNA_input26_A
*738 ANTENNA_input26_X
*739 ANTENNA_input27_A
*740 ANTENNA_input27_X
*741 ANTENNA_input28_A
*742 ANTENNA_input28_X
*743 ANTENNA_input29_A
*744 ANTENNA_input29_X
*745 ANTENNA_input2_A
*746 ANTENNA_input2_X
*747 ANTENNA_input30_A
*748 ANTENNA_input30_X
*749 ANTENNA_input31_A
*750 ANTENNA_input32_A
*751 ANTENNA_input33_A
*752 ANTENNA_input34_A
*753 ANTENNA_input35_A
*754 ANTENNA_input36_A
*755 ANTENNA_input37_A
*756 ANTENNA_input38_A
*757 ANTENNA_input39_A
*758 ANTENNA_input3_A
*759 ANTENNA_input3_X
*760 ANTENNA_input40_A
*761 ANTENNA_input41_A
*762 ANTENNA_input42_A
*763 ANTENNA_input43_A
*764 ANTENNA_input44_A
*765 ANTENNA_input45_A
*766 ANTENNA_input46_A
*767 ANTENNA_input47_A
*768 ANTENNA_input48_A
*769 ANTENNA_input49_A
*770 ANTENNA_input4_A
*771 ANTENNA_input4_X
*772 ANTENNA_input50_A
*773 ANTENNA_input51_A
*774 ANTENNA_input52_A
*775 ANTENNA_input53_A
*776 ANTENNA_input54_A
*777 ANTENNA_input55_A
*778 ANTENNA_input56_A
*779 ANTENNA_input57_A
*780 ANTENNA_input58_A
*781 ANTENNA_input59_A
*782 ANTENNA_input5_A
*783 ANTENNA_input5_X
*784 ANTENNA_input60_A
*785 ANTENNA_input61_A
*786 ANTENNA_input62_A
*787 ANTENNA_input63_A
*788 ANTENNA_input64_A
*789 ANTENNA_input65_A
*790 ANTENNA_input66_A
*791 ANTENNA_input67_A
*792 ANTENNA_input68_A
*793 ANTENNA_input69_A
*794 ANTENNA_input6_A
*795 ANTENNA_input6_X
*796 ANTENNA_input70_A
*797 ANTENNA_input71_A
*798 ANTENNA_input72_A
*799 ANTENNA_input73_A
*800 ANTENNA_input74_A
*801 ANTENNA_input75_A
*802 ANTENNA_input76_A
*803 ANTENNA_input77_A
*804 ANTENNA_input78_A
*805 ANTENNA_input79_A
*806 ANTENNA_input7_A
*807 ANTENNA_input7_X
*808 ANTENNA_input80_A
*809 ANTENNA_input81_A
*810 ANTENNA_input82_A
*811 ANTENNA_input83_A
*812 ANTENNA_input84_A
*813 ANTENNA_input85_A
*814 ANTENNA_input86_A
*815 ANTENNA_input87_A
*816 ANTENNA_input88_A
*817 ANTENNA_input89_A
*818 ANTENNA_input8_A
*819 ANTENNA_input8_X
*820 ANTENNA_input90_A
*821 ANTENNA_input91_A
*822 ANTENNA_input92_A
*823 ANTENNA_input93_A
*824 ANTENNA_input94_A
*825 ANTENNA_input95_A
*826 ANTENNA_input96_A
*827 ANTENNA_input97_A
*828 ANTENNA_input98_A
*829 ANTENNA_input99_A
*830 ANTENNA_input9_A
*831 ANTENNA_input9_X
*832 ANTENNA_max_cap232_A
*833 ANTENNA_max_cap232_X
*834 ANTENNA_max_cap233_A
*835 ANTENNA_max_cap233_X
*836 ANTENNA_output119_A
*837 ANTENNA_output121_A
*838 ANTENNA_output122_A
*839 ANTENNA_output123_A
*840 ANTENNA_output124_A
*841 ANTENNA_output125_A
*842 ANTENNA_output126_A
*843 ANTENNA_output127_A
*844 ANTENNA_output128_A
*845 ANTENNA_output130_A
*846 ANTENNA_output131_A
*847 ANTENNA_output132_A
*848 ANTENNA_output133_A
*849 ANTENNA_output134_A
*850 ANTENNA_output135_A
*851 ANTENNA_output136_A
*852 ANTENNA_output137_A
*853 ANTENNA_output138_A
*854 ANTENNA_output139_A
*855 FILLER_0_113
*856 FILLER_0_118
*857 FILLER_0_135
*858 FILLER_0_15
*859 FILLER_0_154
*860 FILLER_0_161
*861 FILLER_0_169
*862 FILLER_0_177
*863 FILLER_0_182
*864 FILLER_0_190
*865 FILLER_0_197
*866 FILLER_0_203
*867 FILLER_0_211
*868 FILLER_0_217
*869 FILLER_0_223
*870 FILLER_0_225
*871 FILLER_0_231
*872 FILLER_0_239
*873 FILLER_0_245
*874 FILLER_0_253
*875 FILLER_0_261
*876 FILLER_0_266
*877 FILLER_0_27
*878 FILLER_0_274
*879 FILLER_0_281
*880 FILLER_0_287
*881 FILLER_0_29
*882 FILLER_0_295
*883 FILLER_0_3
*884 FILLER_0_301
*885 FILLER_0_307
*886 FILLER_0_309
*887 FILLER_0_315
*888 FILLER_0_328
*889 FILLER_0_335
*890 FILLER_0_337
*891 FILLER_0_343
*892 FILLER_0_349
*893 FILLER_0_357
*894 FILLER_0_363
*895 FILLER_0_370
*896 FILLER_0_378
*897 FILLER_0_384
*898 FILLER_0_398
*899 FILLER_0_406
*900 FILLER_0_41
*901 FILLER_0_419
*902 FILLER_0_427
*903 FILLER_0_434
*904 FILLER_0_455
*905 FILLER_0_469
*906 FILLER_0_475
*907 FILLER_0_482
*908 FILLER_0_494
*909 FILLER_0_502
*910 FILLER_0_505
*911 FILLER_0_517
*912 FILLER_0_529
*913 FILLER_0_53
*914 FILLER_0_533
*915 FILLER_0_545
*916 FILLER_0_557
*917 FILLER_0_561
*918 FILLER_0_57
*919 FILLER_0_573
*920 FILLER_0_585
*921 FILLER_0_589
*922 FILLER_0_595
*923 FILLER_0_602
*924 FILLER_0_610
*925 FILLER_0_617
*926 FILLER_0_625
*927 FILLER_0_630
*928 FILLER_0_638
*929 FILLER_0_645
*930 FILLER_0_651
*931 FILLER_0_659
*932 FILLER_0_665
*933 FILLER_0_671
*934 FILLER_0_673
*935 FILLER_0_679
*936 FILLER_0_686
*937 FILLER_0_69
*938 FILLER_0_694
*939 FILLER_0_701
*940 FILLER_0_709
*941 FILLER_0_714
*942 FILLER_0_722
*943 FILLER_0_729
*944 FILLER_0_735
*945 FILLER_0_743
*946 FILLER_0_749
*947 FILLER_0_755
*948 FILLER_0_76
*949 FILLER_0_762
*950 FILLER_0_769
*951 FILLER_0_777
*952 FILLER_0_783
*953 FILLER_0_785
*954 FILLER_0_791
*955 FILLER_0_797
*956 FILLER_0_805
*957 FILLER_0_811
*958 FILLER_0_818
*959 FILLER_0_826
*960 FILLER_0_83
*961 FILLER_0_832
*962 FILLER_0_85
*963 FILLER_0_859
*964 FILLER_0_869
*965 FILLER_0_875
*966 FILLER_0_882
*967 FILLER_0_897
*968 FILLER_0_909
*969 FILLER_0_921
*970 FILLER_0_925
*971 FILLER_0_937
*972 FILLER_0_949
*973 FILLER_0_97
*974 FILLER_100_18
*975 FILLER_100_26
*976 FILLER_100_29
*977 FILLER_100_6
*978 FILLER_101_20
*979 FILLER_101_32
*980 FILLER_101_44
*981 FILLER_101_8
*982 FILLER_102_18
*983 FILLER_102_26
*984 FILLER_102_29
*985 FILLER_102_41
*986 FILLER_102_6
*987 FILLER_103_15
*988 FILLER_103_27
*989 FILLER_103_3
*990 FILLER_103_39
*991 FILLER_103_47
*992 FILLER_104_20
*993 FILLER_104_29
*994 FILLER_104_41
*995 FILLER_104_49
*996 FILLER_104_8
*997 FILLER_105_18
*998 FILLER_105_30
*999 FILLER_105_42
*1000 FILLER_105_6
*1001 FILLER_106_20
*1002 FILLER_106_29
*1003 FILLER_106_41
*1004 FILLER_106_49
*1005 FILLER_106_8
*1006 FILLER_107_18
*1007 FILLER_107_30
*1008 FILLER_107_42
*1009 FILLER_107_6
*1010 FILLER_108_15
*1011 FILLER_108_27
*1012 FILLER_108_29
*1013 FILLER_108_3
*1014 FILLER_108_41
*1015 FILLER_108_49
*1016 FILLER_109_20
*1017 FILLER_109_32
*1018 FILLER_109_44
*1019 FILLER_109_8
*1020 FILLER_10_15
*1021 FILLER_10_27
*1022 FILLER_10_29
*1023 FILLER_10_3
*1024 FILLER_10_41
*1025 FILLER_10_49
*1026 FILLER_110_20
*1027 FILLER_110_29
*1028 FILLER_110_41
*1029 FILLER_110_8
*1030 FILLER_111_15
*1031 FILLER_111_27
*1032 FILLER_111_3
*1033 FILLER_111_39
*1034 FILLER_111_47
*1035 FILLER_112_20
*1036 FILLER_112_29
*1037 FILLER_112_41
*1038 FILLER_112_8
*1039 FILLER_113_15
*1040 FILLER_113_27
*1041 FILLER_113_3
*1042 FILLER_113_39
*1043 FILLER_113_47
*1044 FILLER_114_15
*1045 FILLER_114_27
*1046 FILLER_114_29
*1047 FILLER_114_3
*1048 FILLER_114_41
*1049 FILLER_114_49
*1050 FILLER_115_20
*1051 FILLER_115_32
*1052 FILLER_115_8
*1053 FILLER_116_15
*1054 FILLER_116_27
*1055 FILLER_116_29
*1056 FILLER_116_3
*1057 FILLER_116_41
*1058 FILLER_116_49
*1059 FILLER_117_20
*1060 FILLER_117_32
*1061 FILLER_117_8
*1062 FILLER_118_15
*1063 FILLER_118_27
*1064 FILLER_118_29
*1065 FILLER_118_3
*1066 FILLER_118_41
*1067 FILLER_118_49
*1068 FILLER_119_15
*1069 FILLER_119_27
*1070 FILLER_119_3
*1071 FILLER_119_39
*1072 FILLER_119_47
*1073 FILLER_11_15
*1074 FILLER_11_27
*1075 FILLER_11_3
*1076 FILLER_11_39
*1077 FILLER_11_47
*1078 FILLER_120_20
*1079 FILLER_120_29
*1080 FILLER_120_41
*1081 FILLER_120_8
*1082 FILLER_121_15
*1083 FILLER_121_27
*1084 FILLER_121_3
*1085 FILLER_121_39
*1086 FILLER_121_47
*1087 FILLER_122_20
*1088 FILLER_122_29
*1089 FILLER_122_41
*1090 FILLER_122_8
*1091 FILLER_123_15
*1092 FILLER_123_27
*1093 FILLER_123_3
*1094 FILLER_123_39
*1095 FILLER_123_47
*1096 FILLER_124_15
*1097 FILLER_124_27
*1098 FILLER_124_29
*1099 FILLER_124_3
*1100 FILLER_124_41
*1101 FILLER_124_49
*1102 FILLER_125_19
*1103 FILLER_125_31
*1104 FILLER_125_7
*1105 FILLER_126_15
*1106 FILLER_126_27
*1107 FILLER_126_29
*1108 FILLER_126_3
*1109 FILLER_126_41
*1110 FILLER_126_49
*1111 FILLER_127_19
*1112 FILLER_127_31
*1113 FILLER_127_7
*1114 FILLER_128_15
*1115 FILLER_128_27
*1116 FILLER_128_29
*1117 FILLER_128_3
*1118 FILLER_128_41
*1119 FILLER_128_49
*1120 FILLER_129_15
*1121 FILLER_129_27
*1122 FILLER_129_3
*1123 FILLER_129_39
*1124 FILLER_129_47
*1125 FILLER_12_15
*1126 FILLER_12_27
*1127 FILLER_12_29
*1128 FILLER_12_3
*1129 FILLER_12_41
*1130 FILLER_12_49
*1131 FILLER_130_19
*1132 FILLER_130_27
*1133 FILLER_130_29
*1134 FILLER_130_41
*1135 FILLER_130_49
*1136 FILLER_130_7
*1137 FILLER_131_15
*1138 FILLER_131_27
*1139 FILLER_131_3
*1140 FILLER_131_39
*1141 FILLER_131_47
*1142 FILLER_132_19
*1143 FILLER_132_27
*1144 FILLER_132_29
*1145 FILLER_132_41
*1146 FILLER_132_49
*1147 FILLER_132_7
*1148 FILLER_133_15
*1149 FILLER_133_27
*1150 FILLER_133_3
*1151 FILLER_133_39
*1152 FILLER_133_47
*1153 FILLER_134_15
*1154 FILLER_134_27
*1155 FILLER_134_29
*1156 FILLER_134_3
*1157 FILLER_134_41
*1158 FILLER_134_49
*1159 FILLER_135_19
*1160 FILLER_135_31
*1161 FILLER_135_43
*1162 FILLER_135_49
*1163 FILLER_135_7
*1164 FILLER_136_15
*1165 FILLER_136_27
*1166 FILLER_136_29
*1167 FILLER_136_3
*1168 FILLER_136_41
*1169 FILLER_136_49
*1170 FILLER_137_19
*1171 FILLER_137_31
*1172 FILLER_137_43
*1173 FILLER_137_49
*1174 FILLER_137_7
*1175 FILLER_138_15
*1176 FILLER_138_27
*1177 FILLER_138_29
*1178 FILLER_138_3
*1179 FILLER_138_41
*1180 FILLER_138_49
*1181 FILLER_139_15
*1182 FILLER_139_27
*1183 FILLER_139_3
*1184 FILLER_139_39
*1185 FILLER_139_47
*1186 FILLER_13_15
*1187 FILLER_13_27
*1188 FILLER_13_3
*1189 FILLER_13_39
*1190 FILLER_13_47
*1191 FILLER_140_19
*1192 FILLER_140_27
*1193 FILLER_140_29
*1194 FILLER_140_41
*1195 FILLER_140_49
*1196 FILLER_140_7
*1197 FILLER_141_15
*1198 FILLER_141_27
*1199 FILLER_141_3
*1200 FILLER_141_39
*1201 FILLER_141_47
*1202 FILLER_142_19
*1203 FILLER_142_27
*1204 FILLER_142_29
*1205 FILLER_142_41
*1206 FILLER_142_49
*1207 FILLER_142_7
*1208 FILLER_143_15
*1209 FILLER_143_27
*1210 FILLER_143_3
*1211 FILLER_143_39
*1212 FILLER_143_47
*1213 FILLER_144_15
*1214 FILLER_144_27
*1215 FILLER_144_29
*1216 FILLER_144_3
*1217 FILLER_144_41
*1218 FILLER_144_49
*1219 FILLER_145_19
*1220 FILLER_145_31
*1221 FILLER_145_43
*1222 FILLER_145_49
*1223 FILLER_145_7
*1224 FILLER_146_15
*1225 FILLER_146_27
*1226 FILLER_146_29
*1227 FILLER_146_3
*1228 FILLER_146_41
*1229 FILLER_146_49
*1230 FILLER_147_19
*1231 FILLER_147_31
*1232 FILLER_147_43
*1233 FILLER_147_49
*1234 FILLER_147_7
*1235 FILLER_148_15
*1236 FILLER_148_27
*1237 FILLER_148_29
*1238 FILLER_148_3
*1239 FILLER_148_41
*1240 FILLER_148_49
*1241 FILLER_149_15
*1242 FILLER_149_27
*1243 FILLER_149_3
*1244 FILLER_149_39
*1245 FILLER_149_47
*1246 FILLER_14_15
*1247 FILLER_14_27
*1248 FILLER_14_29
*1249 FILLER_14_3
*1250 FILLER_14_41
*1251 FILLER_14_49
*1252 FILLER_150_19
*1253 FILLER_150_27
*1254 FILLER_150_29
*1255 FILLER_150_41
*1256 FILLER_150_49
*1257 FILLER_150_7
*1258 FILLER_151_15
*1259 FILLER_151_27
*1260 FILLER_151_3
*1261 FILLER_151_39
*1262 FILLER_151_47
*1263 FILLER_152_19
*1264 FILLER_152_27
*1265 FILLER_152_29
*1266 FILLER_152_41
*1267 FILLER_152_49
*1268 FILLER_152_7
*1269 FILLER_153_15
*1270 FILLER_153_27
*1271 FILLER_153_3
*1272 FILLER_153_39
*1273 FILLER_153_47
*1274 FILLER_154_15
*1275 FILLER_154_27
*1276 FILLER_154_29
*1277 FILLER_154_3
*1278 FILLER_154_41
*1279 FILLER_154_49
*1280 FILLER_155_19
*1281 FILLER_155_31
*1282 FILLER_155_43
*1283 FILLER_155_49
*1284 FILLER_155_7
*1285 FILLER_156_15
*1286 FILLER_156_27
*1287 FILLER_156_29
*1288 FILLER_156_3
*1289 FILLER_156_41
*1290 FILLER_156_49
*1291 FILLER_157_15
*1292 FILLER_157_27
*1293 FILLER_157_3
*1294 FILLER_157_39
*1295 FILLER_157_47
*1296 FILLER_158_15
*1297 FILLER_158_27
*1298 FILLER_158_29
*1299 FILLER_158_3
*1300 FILLER_158_41
*1301 FILLER_158_49
*1302 FILLER_159_15
*1303 FILLER_159_27
*1304 FILLER_159_3
*1305 FILLER_159_39
*1306 FILLER_159_47
*1307 FILLER_15_15
*1308 FILLER_15_27
*1309 FILLER_15_3
*1310 FILLER_15_39
*1311 FILLER_15_47
*1312 FILLER_160_15
*1313 FILLER_160_27
*1314 FILLER_160_29
*1315 FILLER_160_3
*1316 FILLER_160_41
*1317 FILLER_160_49
*1318 FILLER_161_15
*1319 FILLER_161_27
*1320 FILLER_161_3
*1321 FILLER_161_39
*1322 FILLER_161_47
*1323 FILLER_162_15
*1324 FILLER_162_27
*1325 FILLER_162_29
*1326 FILLER_162_3
*1327 FILLER_162_41
*1328 FILLER_162_49
*1329 FILLER_163_15
*1330 FILLER_163_27
*1331 FILLER_163_3
*1332 FILLER_163_39
*1333 FILLER_163_47
*1334 FILLER_164_101
*1335 FILLER_164_109
*1336 FILLER_164_115
*1337 FILLER_164_125
*1338 FILLER_164_133
*1339 FILLER_164_137
*1340 FILLER_164_141
*1341 FILLER_164_15
*1342 FILLER_164_153
*1343 FILLER_164_165
*1344 FILLER_164_169
*1345 FILLER_164_181
*1346 FILLER_164_193
*1347 FILLER_164_197
*1348 FILLER_164_209
*1349 FILLER_164_221
*1350 FILLER_164_225
*1351 FILLER_164_237
*1352 FILLER_164_249
*1353 FILLER_164_253
*1354 FILLER_164_265
*1355 FILLER_164_27
*1356 FILLER_164_277
*1357 FILLER_164_281
*1358 FILLER_164_29
*1359 FILLER_164_293
*1360 FILLER_164_3
*1361 FILLER_164_305
*1362 FILLER_164_309
*1363 FILLER_164_315
*1364 FILLER_164_337
*1365 FILLER_164_342
*1366 FILLER_164_354
*1367 FILLER_164_362
*1368 FILLER_164_365
*1369 FILLER_164_377
*1370 FILLER_164_389
*1371 FILLER_164_393
*1372 FILLER_164_405
*1373 FILLER_164_41
*1374 FILLER_164_417
*1375 FILLER_164_421
*1376 FILLER_164_433
*1377 FILLER_164_445
*1378 FILLER_164_449
*1379 FILLER_164_461
*1380 FILLER_164_473
*1381 FILLER_164_477
*1382 FILLER_164_489
*1383 FILLER_164_501
*1384 FILLER_164_505
*1385 FILLER_164_517
*1386 FILLER_164_525
*1387 FILLER_164_53
*1388 FILLER_164_530
*1389 FILLER_164_533
*1390 FILLER_164_536
*1391 FILLER_164_57
*1392 FILLER_164_583
*1393 FILLER_164_587
*1394 FILLER_164_589
*1395 FILLER_164_601
*1396 FILLER_164_613
*1397 FILLER_164_617
*1398 FILLER_164_629
*1399 FILLER_164_641
*1400 FILLER_164_645
*1401 FILLER_164_657
*1402 FILLER_164_669
*1403 FILLER_164_673
*1404 FILLER_164_685
*1405 FILLER_164_69
*1406 FILLER_164_697
*1407 FILLER_164_701
*1408 FILLER_164_713
*1409 FILLER_164_725
*1410 FILLER_164_729
*1411 FILLER_164_741
*1412 FILLER_164_753
*1413 FILLER_164_757
*1414 FILLER_164_769
*1415 FILLER_164_781
*1416 FILLER_164_785
*1417 FILLER_164_797
*1418 FILLER_164_809
*1419 FILLER_164_81
*1420 FILLER_164_813
*1421 FILLER_164_825
*1422 FILLER_164_837
*1423 FILLER_164_841
*1424 FILLER_164_85
*1425 FILLER_164_853
*1426 FILLER_164_865
*1427 FILLER_164_869
*1428 FILLER_164_881
*1429 FILLER_164_893
*1430 FILLER_164_897
*1431 FILLER_164_909
*1432 FILLER_164_925
*1433 FILLER_164_97
*1434 FILLER_165_105
*1435 FILLER_165_111
*1436 FILLER_165_113
*1437 FILLER_165_125
*1438 FILLER_165_137
*1439 FILLER_165_149
*1440 FILLER_165_15
*1441 FILLER_165_161
*1442 FILLER_165_167
*1443 FILLER_165_169
*1444 FILLER_165_181
*1445 FILLER_165_193
*1446 FILLER_165_205
*1447 FILLER_165_217
*1448 FILLER_165_223
*1449 FILLER_165_225
*1450 FILLER_165_237
*1451 FILLER_165_249
*1452 FILLER_165_261
*1453 FILLER_165_27
*1454 FILLER_165_273
*1455 FILLER_165_279
*1456 FILLER_165_281
*1457 FILLER_165_293
*1458 FILLER_165_3
*1459 FILLER_165_305
*1460 FILLER_165_313
*1461 FILLER_165_337
*1462 FILLER_165_342
*1463 FILLER_165_354
*1464 FILLER_165_366
*1465 FILLER_165_378
*1466 FILLER_165_39
*1467 FILLER_165_390
*1468 FILLER_165_393
*1469 FILLER_165_405
*1470 FILLER_165_417
*1471 FILLER_165_429
*1472 FILLER_165_441
*1473 FILLER_165_447
*1474 FILLER_165_449
*1475 FILLER_165_461
*1476 FILLER_165_473
*1477 FILLER_165_485
*1478 FILLER_165_497
*1479 FILLER_165_503
*1480 FILLER_165_505
*1481 FILLER_165_51
*1482 FILLER_165_517
*1483 FILLER_165_529
*1484 FILLER_165_541
*1485 FILLER_165_549
*1486 FILLER_165_55
*1487 FILLER_165_554
*1488 FILLER_165_567
*1489 FILLER_165_57
*1490 FILLER_165_579
*1491 FILLER_165_591
*1492 FILLER_165_603
*1493 FILLER_165_615
*1494 FILLER_165_617
*1495 FILLER_165_629
*1496 FILLER_165_641
*1497 FILLER_165_653
*1498 FILLER_165_665
*1499 FILLER_165_671
*1500 FILLER_165_673
*1501 FILLER_165_685
*1502 FILLER_165_69
*1503 FILLER_165_697
*1504 FILLER_165_709
*1505 FILLER_165_721
*1506 FILLER_165_727
*1507 FILLER_165_729
*1508 FILLER_165_741
*1509 FILLER_165_753
*1510 FILLER_165_765
*1511 FILLER_165_777
*1512 FILLER_165_783
*1513 FILLER_165_785
*1514 FILLER_165_797
*1515 FILLER_165_809
*1516 FILLER_165_81
*1517 FILLER_165_821
*1518 FILLER_165_833
*1519 FILLER_165_839
*1520 FILLER_165_841
*1521 FILLER_165_853
*1522 FILLER_165_865
*1523 FILLER_165_877
*1524 FILLER_165_889
*1525 FILLER_165_895
*1526 FILLER_165_897
*1527 FILLER_165_909
*1528 FILLER_165_917
*1529 FILLER_165_93
*1530 FILLER_165_933
*1531 FILLER_166_109
*1532 FILLER_166_121
*1533 FILLER_166_133
*1534 FILLER_166_139
*1535 FILLER_166_141
*1536 FILLER_166_15
*1537 FILLER_166_153
*1538 FILLER_166_165
*1539 FILLER_166_177
*1540 FILLER_166_189
*1541 FILLER_166_195
*1542 FILLER_166_197
*1543 FILLER_166_209
*1544 FILLER_166_221
*1545 FILLER_166_233