*SPEF "ieee 1481-1999"
*DESIGN "fpga"
*DATE "23:07:02 Sunday July 13, 2025"
*VENDOR "The OpenROAD Project"
*PROGRAM "OpenROAD"
*VERSION "edf00dff99f6c40d67a30c0e22a8191c5d2ed9d6"
*DESIGN_FLOW "NAME_SCOPE LOCAL" "PIN_CAP NONE"
*DIVIDER /
*DELIMITER :
*BUS_DELIMITER []
*T_UNIT 1 NS
*C_UNIT 1 PF
*R_UNIT 1 OHM
*L_UNIT 1 HENRY

*NAME_MAP
*1 clk
*2 config_data_in
*3 config_data_out
*4 config_en
*5 en
*6 io_east_in[0]
*7 io_east_in[10]
*8 io_east_in[11]
*9 io_east_in[12]
*10 io_east_in[13]
*11 io_east_in[14]
*12 io_east_in[15]
*13 io_east_in[16]
*14 io_east_in[17]
*15 io_east_in[18]
*16 io_east_in[19]
*17 io_east_in[1]
*18 io_east_in[20]
*19 io_east_in[21]
*20 io_east_in[22]
*21 io_east_in[23]
*22 io_east_in[24]
*23 io_east_in[25]
*24 io_east_in[26]
*25 io_east_in[27]
*26 io_east_in[28]
*27 io_east_in[29]
*28 io_east_in[2]
*29 io_east_in[30]
*30 io_east_in[31]
*31 io_east_in[3]
*32 io_east_in[4]
*33 io_east_in[5]
*34 io_east_in[6]
*35 io_east_in[7]
*36 io_east_in[8]
*37 io_east_in[9]
*38 io_east_out[0]
*39 io_east_out[10]
*40 io_east_out[11]
*41 io_east_out[12]
*42 io_east_out[13]
*43 io_east_out[14]
*44 io_east_out[15]
*45 io_east_out[16]
*46 io_east_out[17]
*47 io_east_out[18]
*48 io_east_out[19]
*49 io_east_out[1]
*50 io_east_out[20]
*51 io_east_out[21]
*52 io_east_out[22]
*53 io_east_out[23]
*54 io_east_out[24]
*55 io_east_out[25]
*56 io_east_out[26]
*57 io_east_out[27]
*58 io_east_out[28]
*59 io_east_out[29]
*60 io_east_out[2]
*61 io_east_out[30]
*62 io_east_out[31]
*63 io_east_out[3]
*64 io_east_out[4]
*65 io_east_out[5]
*66 io_east_out[6]
*67 io_east_out[7]
*68 io_east_out[8]
*69 io_east_out[9]
*70 io_north_in[0]
*71 io_north_in[10]
*72 io_north_in[11]
*73 io_north_in[12]
*74 io_north_in[13]
*75 io_north_in[14]
*76 io_north_in[15]
*77 io_north_in[16]
*78 io_north_in[17]
*79 io_north_in[18]
*80 io_north_in[19]
*81 io_north_in[1]
*82 io_north_in[20]
*83 io_north_in[21]
*84 io_north_in[22]
*85 io_north_in[23]
*86 io_north_in[24]
*87 io_north_in[25]
*88 io_north_in[26]
*89 io_north_in[27]
*90 io_north_in[28]
*91 io_north_in[29]
*92 io_north_in[2]
*93 io_north_in[30]
*94 io_north_in[31]
*95 io_north_in[3]
*96 io_north_in[4]
*97 io_north_in[5]
*98 io_north_in[6]
*99 io_north_in[7]
*100 io_north_in[8]
*101 io_north_in[9]
*102 io_north_out[0]
*103 io_north_out[10]
*104 io_north_out[11]
*105 io_north_out[12]
*106 io_north_out[13]
*107 io_north_out[14]
*108 io_north_out[15]
*109 io_north_out[16]
*110 io_north_out[17]
*111 io_north_out[18]
*112 io_north_out[19]
*113 io_north_out[1]
*114 io_north_out[20]
*115 io_north_out[21]
*116 io_north_out[22]
*117 io_north_out[23]
*118 io_north_out[24]
*119 io_north_out[25]
*120 io_north_out[26]
*121 io_north_out[27]
*122 io_north_out[28]
*123 io_north_out[29]
*124 io_north_out[2]
*125 io_north_out[30]
*126 io_north_out[31]
*127 io_north_out[3]
*128 io_north_out[4]
*129 io_north_out[5]
*130 io_north_out[6]
*131 io_north_out[7]
*132 io_north_out[8]
*133 io_north_out[9]
*134 io_south_in[0]
*135 io_south_in[10]
*136 io_south_in[11]
*137 io_south_in[12]
*138 io_south_in[13]
*139 io_south_in[14]
*140 io_south_in[15]
*141 io_south_in[16]
*142 io_south_in[17]
*143 io_south_in[18]
*144 io_south_in[19]
*145 io_south_in[1]
*146 io_south_in[20]
*147 io_south_in[21]
*148 io_south_in[22]
*149 io_south_in[23]
*150 io_south_in[24]
*151 io_south_in[25]
*152 io_south_in[26]
*153 io_south_in[27]
*154 io_south_in[28]
*155 io_south_in[29]
*156 io_south_in[2]
*157 io_south_in[30]
*158 io_south_in[31]
*159 io_south_in[3]
*160 io_south_in[4]
*161 io_south_in[5]
*162 io_south_in[6]
*163 io_south_in[7]
*164 io_south_in[8]
*165 io_south_in[9]
*166 io_south_out[0]
*167 io_south_out[10]
*168 io_south_out[11]
*169 io_south_out[12]
*170 io_south_out[13]
*171 io_south_out[14]
*172 io_south_out[15]
*173 io_south_out[16]
*174 io_south_out[17]
*175 io_south_out[18]
*176 io_south_out[19]
*177 io_south_out[1]
*178 io_south_out[20]
*179 io_south_out[21]
*180 io_south_out[22]
*181 io_south_out[23]
*182 io_south_out[24]
*183 io_south_out[25]
*184 io_south_out[26]
*185 io_south_out[27]
*186 io_south_out[28]
*187 io_south_out[29]
*188 io_south_out[2]
*189 io_south_out[30]
*190 io_south_out[31]
*191 io_south_out[3]
*192 io_south_out[4]
*193 io_south_out[5]
*194 io_south_out[6]
*195 io_south_out[7]
*196 io_south_out[8]
*197 io_south_out[9]
*198 io_west_in[0]
*199 io_west_in[10]
*200 io_west_in[11]
*201 io_west_in[12]
*202 io_west_in[13]
*203 io_west_in[14]
*204 io_west_in[15]
*205 io_west_in[16]
*206 io_west_in[17]
*207 io_west_in[18]
*208 io_west_in[19]
*209 io_west_in[1]
*210 io_west_in[20]
*211 io_west_in[21]
*212 io_west_in[22]
*213 io_west_in[23]
*214 io_west_in[24]
*215 io_west_in[25]
*216 io_west_in[26]
*217 io_west_in[27]
*218 io_west_in[28]
*219 io_west_in[29]
*220 io_west_in[2]
*221 io_west_in[30]
*222 io_west_in[31]
*223 io_west_in[3]
*224 io_west_in[4]
*225 io_west_in[5]
*226 io_west_in[6]
*227 io_west_in[7]
*228 io_west_in[8]
*229 io_west_in[9]
*230 io_west_out[0]
*231 io_west_out[10]
*232 io_west_out[11]
*233 io_west_out[12]
*234 io_west_out[13]
*235 io_west_out[14]
*236 io_west_out[15]
*237 io_west_out[16]
*238 io_west_out[17]
*239 io_west_out[18]
*240 io_west_out[19]
*241 io_west_out[1]
*242 io_west_out[20]
*243 io_west_out[21]
*244 io_west_out[22]
*245 io_west_out[23]
*246 io_west_out[24]
*247 io_west_out[25]
*248 io_west_out[26]
*249 io_west_out[27]
*250 io_west_out[28]
*251 io_west_out[29]
*252 io_west_out[2]
*253 io_west_out[30]
*254 io_west_out[31]
*255 io_west_out[3]
*256 io_west_out[4]
*257 io_west_out[5]
*258 io_west_out[6]
*259 io_west_out[7]
*260 io_west_out[8]
*261 io_west_out[9]
*262 le_clk
*263 le_en
*264 le_nrst
*265 nrst
*268 bus0_1\[0\]
*269 bus0_1\[10\]
*270 bus0_1\[11\]
*271 bus0_1\[12\]
*272 bus0_1\[13\]
*273 bus0_1\[14\]
*274 bus0_1\[15\]
*275 bus0_1\[1\]
*276 bus0_1\[2\]
*277 bus0_1\[3\]
*278 bus0_1\[4\]
*279 bus0_1\[5\]
*280 bus0_1\[6\]
*281 bus0_1\[7\]
*282 bus0_1\[8\]
*283 bus0_1\[9\]
*284 bus0_2\[0\]
*285 bus0_2\[10\]
*286 bus0_2\[11\]
*287 bus0_2\[12\]
*288 bus0_2\[13\]
*289 bus0_2\[14\]
*290 bus0_2\[15\]
*291 bus0_2\[1\]
*292 bus0_2\[2\]
*293 bus0_2\[3\]
*294 bus0_2\[4\]
*295 bus0_2\[5\]
*296 bus0_2\[6\]
*297 bus0_2\[7\]
*298 bus0_2\[8\]
*299 bus0_2\[9\]
*300 bus1_0\[0\]
*301 bus1_0\[10\]
*302 bus1_0\[11\]
*303 bus1_0\[12\]
*304 bus1_0\[13\]
*305 bus1_0\[14\]
*306 bus1_0\[15\]
*307 bus1_0\[1\]
*308 bus1_0\[2\]
*309 bus1_0\[3\]
*310 bus1_0\[4\]
*311 bus1_0\[5\]
*312 bus1_0\[6\]
*313 bus1_0\[7\]
*314 bus1_0\[8\]
*315 bus1_0\[9\]
*316 bus1_3\[0\]
*317 bus1_3\[10\]
*318 bus1_3\[11\]
*319 bus1_3\[12\]
*320 bus1_3\[13\]
*321 bus1_3\[14\]
*322 bus1_3\[15\]
*323 bus1_3\[1\]
*324 bus1_3\[2\]
*325 bus1_3\[3\]
*326 bus1_3\[4\]
*327 bus1_3\[5\]
*328 bus1_3\[6\]
*329 bus1_3\[7\]
*330 bus1_3\[8\]
*331 bus1_3\[9\]
*332 bus2_0\[0\]
*333 bus2_0\[10\]
*334 bus2_0\[11\]
*335 bus2_0\[12\]
*336 bus2_0\[13\]
*337 bus2_0\[14\]
*338 bus2_0\[15\]
*339 bus2_0\[1\]
*340 bus2_0\[2\]
*341 bus2_0\[3\]
*342 bus2_0\[4\]
*343 bus2_0\[5\]
*344 bus2_0\[6\]
*345 bus2_0\[7\]
*346 bus2_0\[8\]
*347 bus2_0\[9\]
*348 bus2_3\[0\]
*349 bus2_3\[10\]
*350 bus2_3\[11\]
*351 bus2_3\[12\]
*352 bus2_3\[13\]
*353 bus2_3\[14\]
*354 bus2_3\[15\]
*355 bus2_3\[1\]
*356 bus2_3\[2\]
*357 bus2_3\[3\]
*358 bus2_3\[4\]
*359 bus2_3\[5\]
*360 bus2_3\[6\]
*361 bus2_3\[7\]
*362 bus2_3\[8\]
*363 bus2_3\[9\]
*364 bus3_1\[0\]
*365 bus3_1\[10\]
*366 bus3_1\[11\]
*367 bus3_1\[12\]
*368 bus3_1\[13\]
*369 bus3_1\[14\]
*370 bus3_1\[15\]
*371 bus3_1\[1\]
*372 bus3_1\[2\]
*373 bus3_1\[3\]
*374 bus3_1\[4\]
*375 bus3_1\[5\]
*376 bus3_1\[6\]
*377 bus3_1\[7\]
*378 bus3_1\[8\]
*379 bus3_1\[9\]
*380 bus3_2\[0\]
*381 bus3_2\[10\]
*382 bus3_2\[11\]
*383 bus3_2\[12\]
*384 bus3_2\[13\]
*385 bus3_2\[14\]
*386 bus3_2\[15\]
*387 bus3_2\[1\]
*388 bus3_2\[2\]
*389 bus3_2\[3\]
*390 bus3_2\[4\]
*391 bus3_2\[5\]
*392 bus3_2\[6\]
*393 bus3_2\[7\]
*394 bus3_2\[8\]
*395 bus3_2\[9\]
*396 cell0_cram_out
*397 cell1_cram_out
*398 cell2_cram_out
*399 clknet_0_clk
*400 clknet_1_0__leaf_clk
*401 clknet_1_1__leaf_clk
*402 net1
*403 net10
*404 net100
*405 net101
*406 net102
*407 net103
*408 net104
*409 net105
*410 net106
*411 net107
*412 net108
*413 net109
*414 net11
*415 net110
*416 net111
*417 net112
*418 net113
*419 net114
*420 net115
*421 net116
*422 net117
*423 net118
*424 net119
*425 net12
*426 net120
*427 net121
*428 net122
*429 net123
*430 net124
*431 net125
*432 net126
*433 net127
*434 net128
*435 net129
*436 net13
*437 net130
*438 net131
*439 net132
*440 net133
*441 net134
*442 net135
*443 net136
*444 net137
*445 net138
*446 net139
*447 net14
*448 net140
*449 net141
*450 net142
*451 net143
*452 net144
*453 net145
*454 net146
*455 net147
*456 net148
*457 net149
*458 net15
*459 net150
*460 net151
*461 net152
*462 net153
*463 net154
*464 net155
*465 net156
*466 net157
*467 net158
*468 net159
*469 net16
*470 net160
*471 net161
*472 net162
*473 net163
*474 net164
*475 net165
*476 net166
*477 net167
*478 net168
*479 net169
*480 net17
*481 net170
*482 net171
*483 net172
*484 net173
*485 net174
*486 net175
*487 net176
*488 net177
*489 net178
*490 net179
*491 net18
*492 net180
*493 net181
*494 net182
*495 net183
*496 net184
*497 net185
*498 net186
*499 net187
*500 net188
*501 net189
*502 net19
*503 net190
*504 net191
*505 net192
*506 net193
*507 net194
*508 net195
*509 net196
*510 net197
*511 net198
*512 net199
*513 net2
*514 net20
*515 net200
*516 net201
*517 net202
*518 net203
*519 net204
*520 net205
*521 net206
*522 net207
*523 net208
*524 net209
*525 net21
*526 net210
*527 net211
*528 net212
*529 net213
*530 net214
*531 net215
*532 net216
*533 net217
*534 net218
*535 net219
*536 net22
*537 net220
*538 net221
*539 net222
*540 net223
*541 net224
*542 net225
*543 net226
*544 net227
*545 net228
*546 net229
*547 net23
*548 net230
*549 net231
*550 net232
*551 net233
*552 net234
*553 net235
*554 net236
*555 net237
*556 net238
*557 net239
*558 net24
*559 net240
*560 net241
*561 net242
*562 net243
*563 net244
*564 net245
*565 net246
*566 net247
*567 net248
*568 net249
*569 net25
*570 net250
*571 net251
*572 net252
*573 net253
*574 net254
*575 net255
*576 net256
*577 net257
*578 net258
*579 net259
*580 net26
*581 net260
*582 net261
*583 net262
*584 net263
*585 net264
*586 net265
*587 net266
*588 net267
*589 net27
*590 net28
*591 net29
*592 net3
*593 net30
*594 net31
*595 net32
*596 net33
*597 net34
*598 net35
*599 net36
*600 net37
*601 net38
*602 net39
*603 net4
*604 net40
*605 net41
*606 net42
*607 net43
*608 net44
*609 net45
*610 net46
*611 net47
*612 net48
*613 net49
*614 net5
*615 net50
*616 net51
*617 net52
*618 net53
*619 net54
*620 net55
*621 net56
*622 net57
*623 net58
*624 net59
*625 net6
*626 net60
*627 net61
*628 net62
*629 net63
*630 net64
*631 net65
*632 net66
*633 net67
*634 net68
*635 net69
*636 net7
*637 net70
*638 net71
*639 net72
*640 net73
*641 net74
*642 net75
*643 net76
*644 net77
*645 net78
*646 net79
*647 net8
*648 net80
*649 net81
*650 net82
*651 net83
*652 net84
*653 net85
*654 net86
*655 net87
*656 net88
*657 net89
*658 net9
*659 net90
*660 net91
*661 net92
*662 net93
*663 net94
*664 net95
*665 net96
*666 net97
*667 net98
*668 net99
*669 ANTENNA_cell0_clk
*670 ANTENNA_cell0_config_data_out
*671 ANTENNA_cell0_config_en
*672 ANTENNA_cell0_en
*673 ANTENNA_cell0_le_clk
*674 ANTENNA_cell0_le_en
*675 ANTENNA_cell0_le_nrst
*676 ANTENNA_cell0_nrst
*677 ANTENNA_cell1_clk
*678 ANTENNA_cell1_config_data_in
*679 ANTENNA_cell1_config_data_out
*680 ANTENNA_cell1_config_en
*681 ANTENNA_cell1_en
*682 ANTENNA_cell1_le_clk
*683 ANTENNA_cell1_le_en
*684 ANTENNA_cell1_le_nrst
*685 ANTENNA_cell1_nrst
*686 ANTENNA_cell2_clk
*687 ANTENNA_cell2_config_data_in
*688 ANTENNA_cell2_config_data_out
*689 ANTENNA_cell2_config_en
*690 ANTENNA_cell2_en
*691 ANTENNA_cell2_le_clk
*692 ANTENNA_cell2_le_en
*693 ANTENNA_cell2_le_nrst
*694 ANTENNA_cell2_nrst
*695 ANTENNA_cell3_clk
*696 ANTENNA_cell3_config_data_in
*697 ANTENNA_cell3_config_data_out
*698 ANTENNA_cell3_config_en
*699 ANTENNA_cell3_en
*700 ANTENNA_cell3_le_clk
*701 ANTENNA_cell3_le_en
*702 ANTENNA_cell3_le_nrst
*703 ANTENNA_cell3_nrst
*704 ANTENNA_clkbuf_0_clk_A
*705 ANTENNA_clkbuf_0_clk_X
*706 ANTENNA_clkbuf_1_0__f_clk_A
*707 ANTENNA_clkbuf_1_0__f_clk_X
*708 ANTENNA_clkbuf_1_1__f_clk_A
*709 ANTENNA_clkbuf_1_1__f_clk_X
*710 ANTENNA_input100_A
*711 ANTENNA_input101_A
*712 ANTENNA_input102_A
*713 ANTENNA_input103_A
*714 ANTENNA_input104_A
*715 ANTENNA_input105_A
*716 ANTENNA_input106_A
*717 ANTENNA_input107_A
*718 ANTENNA_input108_A
*719 ANTENNA_input109_A
*720 ANTENNA_input10_A
*721 ANTENNA_input110_A
*722 ANTENNA_input111_A
*723 ANTENNA_input112_A
*724 ANTENNA_input113_A
*725 ANTENNA_input114_A
*726 ANTENNA_input115_A
*727 ANTENNA_input116_A
*728 ANTENNA_input117_A
*729 ANTENNA_input118_A
*730 ANTENNA_input119_A
*731 ANTENNA_input11_A
*732 ANTENNA_input120_A
*733 ANTENNA_input121_A
*734 ANTENNA_input122_A
*735 ANTENNA_input123_A
*736 ANTENNA_input124_A
*737 ANTENNA_input125_A
*738 ANTENNA_input126_A
*739 ANTENNA_input127_A
*740 ANTENNA_input128_A
*741 ANTENNA_input129_A
*742 ANTENNA_input12_A
*743 ANTENNA_input130_A
*744 ANTENNA_input131_A
*745 ANTENNA_input132_A
*746 ANTENNA_input132_X
*747 ANTENNA_input133_A
*748 ANTENNA_input133_X
*749 ANTENNA_input134_A
*750 ANTENNA_input134_X
*751 ANTENNA_input135_A
*752 ANTENNA_input135_X
*753 ANTENNA_input13_A
*754 ANTENNA_input14_A
*755 ANTENNA_input15_A
*756 ANTENNA_input16_A
*757 ANTENNA_input17_A
*758 ANTENNA_input18_A
*759 ANTENNA_input19_A
*760 ANTENNA_input1_A
*761 ANTENNA_input20_A
*762 ANTENNA_input21_A
*763 ANTENNA_input22_A
*764 ANTENNA_input23_A
*765 ANTENNA_input24_A
*766 ANTENNA_input25_A
*767 ANTENNA_input26_A
*768 ANTENNA_input27_A
*769 ANTENNA_input28_A
*770 ANTENNA_input29_A
*771 ANTENNA_input2_A
*772 ANTENNA_input2_X
*773 ANTENNA_input30_A
*774 ANTENNA_input31_A
*775 ANTENNA_input32_A
*776 ANTENNA_input33_A
*777 ANTENNA_input34_A
*778 ANTENNA_input35_A
*779 ANTENNA_input36_A
*780 ANTENNA_input37_A
*781 ANTENNA_input38_A
*782 ANTENNA_input39_A
*783 ANTENNA_input3_A
*784 ANTENNA_input3_X
*785 ANTENNA_input40_A
*786 ANTENNA_input41_A
*787 ANTENNA_input42_A
*788 ANTENNA_input43_A
*789 ANTENNA_input44_A
*790 ANTENNA_input45_A
*791 ANTENNA_input46_A
*792 ANTENNA_input47_A
*793 ANTENNA_input48_A
*794 ANTENNA_input49_A
*795 ANTENNA_input4_A
*796 ANTENNA_input50_A
*797 ANTENNA_input51_A
*798 ANTENNA_input52_A
*799 ANTENNA_input53_A
*800 ANTENNA_input54_A
*801 ANTENNA_input55_A
*802 ANTENNA_input56_A
*803 ANTENNA_input57_A
*804 ANTENNA_input58_A
*805 ANTENNA_input59_A
*806 ANTENNA_input5_A
*807 ANTENNA_input60_A
*808 ANTENNA_input61_A
*809 ANTENNA_input62_A
*810 ANTENNA_input63_A
*811 ANTENNA_input64_A
*812 ANTENNA_input65_A
*813 ANTENNA_input66_A
*814 ANTENNA_input67_A
*815 ANTENNA_input68_A
*816 ANTENNA_input69_A
*817 ANTENNA_input6_A
*818 ANTENNA_input70_A
*819 ANTENNA_input71_A
*820 ANTENNA_input72_A
*821 ANTENNA_input73_A
*822 ANTENNA_input74_A
*823 ANTENNA_input75_A
*824 ANTENNA_input76_A
*825 ANTENNA_input77_A
*826 ANTENNA_input78_A
*827 ANTENNA_input79_A
*828 ANTENNA_input7_A
*829 ANTENNA_input80_A
*830 ANTENNA_input81_A
*831 ANTENNA_input82_A
*832 ANTENNA_input83_A
*833 ANTENNA_input84_A
*834 ANTENNA_input85_A
*835 ANTENNA_input86_A
*836 ANTENNA_input87_A
*837 ANTENNA_input88_A
*838 ANTENNA_input89_A
*839 ANTENNA_input8_A
*840 ANTENNA_input90_A
*841 ANTENNA_input91_A
*842 ANTENNA_input92_A
*843 ANTENNA_input93_A
*844 ANTENNA_input94_A
*845 ANTENNA_input95_A
*846 ANTENNA_input96_A
*847 ANTENNA_input97_A
*848 ANTENNA_input98_A
*849 ANTENNA_input99_A
*850 ANTENNA_input9_A
*851 ANTENNA_max_cap265_A
*852 ANTENNA_max_cap265_X
*853 ANTENNA_max_cap266_A
*854 ANTENNA_max_cap266_X
*855 ANTENNA_max_cap267_A
*856 ANTENNA_max_cap267_X
*857 ANTENNA_output136_A
*858 FILLER_0_1005
*859 FILLER_0_1009
*860 FILLER_0_1021
*861 FILLER_0_1033
*862 FILLER_0_1037
*863 FILLER_0_113
*864 FILLER_0_118
*865 FILLER_0_141
*866 FILLER_0_147
*867 FILLER_0_15
*868 FILLER_0_155
*869 FILLER_0_161
*870 FILLER_0_167
*871 FILLER_0_169
*872 FILLER_0_175
*873 FILLER_0_182
*874 FILLER_0_190
*875 FILLER_0_197
*876 FILLER_0_205
*877 FILLER_0_210
*878 FILLER_0_218
*879 FILLER_0_225
*880 FILLER_0_231
*881 FILLER_0_239
*882 FILLER_0_245
*883 FILLER_0_251
*884 FILLER_0_253
*885 FILLER_0_259
*886 FILLER_0_266
*887 FILLER_0_27
*888 FILLER_0_274
*889 FILLER_0_281
*890 FILLER_0_289
*891 FILLER_0_29
*892 FILLER_0_294
*893 FILLER_0_3
*894 FILLER_0_302
*895 FILLER_0_309
*896 FILLER_0_315
*897 FILLER_0_323
*898 FILLER_0_329
*899 FILLER_0_335
*900 FILLER_0_342
*901 FILLER_0_349
*902 FILLER_0_357
*903 FILLER_0_363
*904 FILLER_0_365
*905 FILLER_0_371
*906 FILLER_0_377
*907 FILLER_0_385
*908 FILLER_0_391
*909 FILLER_0_398
*910 FILLER_0_406
*911 FILLER_0_41
*912 FILLER_0_412
*913 FILLER_0_426
*914 FILLER_0_433
*915 FILLER_0_441
*916 FILLER_0_447
*917 FILLER_0_449
*918 FILLER_0_455
*919 FILLER_0_461
*920 FILLER_0_469
*921 FILLER_0_489
*922 FILLER_0_503
*923 FILLER_0_523
*924 FILLER_0_53
*925 FILLER_0_531
*926 FILLER_0_533
*927 FILLER_0_545
*928 FILLER_0_557
*929 FILLER_0_561
*930 FILLER_0_57
*931 FILLER_0_573
*932 FILLER_0_585
*933 FILLER_0_589
*934 FILLER_0_597
*935 FILLER_0_602
*936 FILLER_0_610
*937 FILLER_0_617
*938 FILLER_0_625
*939 FILLER_0_630
*940 FILLER_0_638
*941 FILLER_0_645
*942 FILLER_0_651
*943 FILLER_0_659
*944 FILLER_0_665
*945 FILLER_0_671
*946 FILLER_0_673
*947 FILLER_0_679
*948 FILLER_0_686
*949 FILLER_0_69
*950 FILLER_0_694
*951 FILLER_0_701
*952 FILLER_0_709
*953 FILLER_0_714
*954 FILLER_0_722
*955 FILLER_0_729
*956 FILLER_0_735
*957 FILLER_0_743
*958 FILLER_0_749
*959 FILLER_0_755
*960 FILLER_0_757
*961 FILLER_0_763
*962 FILLER_0_770
*963 FILLER_0_778
*964 FILLER_0_785
*965 FILLER_0_791
*966 FILLER_0_797
*967 FILLER_0_805
*968 FILLER_0_81
*969 FILLER_0_811
*970 FILLER_0_818
*971 FILLER_0_826
*972 FILLER_0_832
*973 FILLER_0_846
*974 FILLER_0_85
*975 FILLER_0_853
*976 FILLER_0_861
*977 FILLER_0_867
*978 FILLER_0_869
*979 FILLER_0_875
*980 FILLER_0_881
*981 FILLER_0_889
*982 FILLER_0_895
*983 FILLER_0_902
*984 FILLER_0_910
*985 FILLER_0_916
*986 FILLER_0_93
*987 FILLER_0_931
*988 FILLER_0_944
*989 FILLER_0_973
*990 FILLER_0_979
*991 FILLER_0_981
*992 FILLER_0_993
*993 FILLER_100_1013
*994 FILLER_100_1025
*995 FILLER_100_1037
*996 FILLER_100_1039
*997 FILLER_100_1047
*998 FILLER_100_15
*999 FILLER_100_27
*1000 FILLER_100_29
*1001 FILLER_100_3
*1002 FILLER_100_41
*1003 FILLER_100_49
*1004 FILLER_101_1013
*1005 FILLER_101_1025
*1006 FILLER_101_1037
*1007 FILLER_101_11
*1008 FILLER_101_23
*1009 FILLER_101_35
*1010 FILLER_101_47
*1011 FILLER_102_1013
*1012 FILLER_102_1025
*1013 FILLER_102_1037
*1014 FILLER_102_1039
*1015 FILLER_102_21
*1016 FILLER_102_27
*1017 FILLER_102_29
*1018 FILLER_102_41
*1019 FILLER_102_49
*1020 FILLER_102_9
*1021 FILLER_103_1013
*1022 FILLER_103_1025
*1023 FILLER_103_1037
*1024 FILLER_103_15
*1025 FILLER_103_27
*1026 FILLER_103_3
*1027 FILLER_103_39
*1028 FILLER_103_47
*1029 FILLER_104_1013
*1030 FILLER_104_1025
*1031 FILLER_104_1037
*1032 FILLER_104_1039
*1033 FILLER_104_1047
*1034 FILLER_104_15
*1035 FILLER_104_27
*1036 FILLER_104_29
*1037 FILLER_104_3
*1038 FILLER_104_41
*1039 FILLER_104_49
*1040 FILLER_105_1013
*1041 FILLER_105_1025
*1042 FILLER_105_1037
*1043 FILLER_105_21
*1044 FILLER_105_33
*1045 FILLER_105_45
*1046 FILLER_105_49
*1047 FILLER_105_9
*1048 FILLER_106_1013
*1049 FILLER_106_1025
*1050 FILLER_106_1037
*1051 FILLER_106_1039
*1052 FILLER_106_11
*1053 FILLER_106_23
*1054 FILLER_106_27
*1055 FILLER_106_29
*1056 FILLER_106_41
*1057 FILLER_106_49
*1058 FILLER_107_1013
*1059 FILLER_107_1025
*1060 FILLER_107_1037
*1061 FILLER_107_15
*1062 FILLER_107_27
*1063 FILLER_107_3
*1064 FILLER_107_39
*1065 FILLER_107_47
*1066 FILLER_108_1013
*1067 FILLER_108_1025
*1068 FILLER_108_1037
*1069 FILLER_108_1039
*1070 FILLER_108_1047
*1071 FILLER_108_15
*1072 FILLER_108_27
*1073 FILLER_108_29
*1074 FILLER_108_3
*1075 FILLER_108_41
*1076 FILLER_108_49
*1077 FILLER_109_1013
*1078 FILLER_109_1025
*1079 FILLER_109_1037
*1080 FILLER_109_21
*1081 FILLER_109_33
*1082 FILLER_109_45
*1083 FILLER_109_49
*1084 FILLER_109_9
*1085 FILLER_10_1013
*1086 FILLER_10_1025
*1087 FILLER_10_1037
*1088 FILLER_10_1039
*1089 FILLER_10_1047
*1090 FILLER_10_15
*1091 FILLER_10_27
*1092 FILLER_10_29
*1093 FILLER_10_3
*1094 FILLER_10_41
*1095 FILLER_10_49
*1096 FILLER_110_1013
*1097 FILLER_110_1025
*1098 FILLER_110_1037
*1099 FILLER_110_1039
*1100 FILLER_110_1047
*1101 FILLER_110_15
*1102 FILLER_110_27
*1103 FILLER_110_29
*1104 FILLER_110_3
*1105 FILLER_110_41
*1106 FILLER_110_49
*1107 FILLER_111_1013
*1108 FILLER_111_1025
*1109 FILLER_111_1037
*1110 FILLER_111_11
*1111 FILLER_111_23
*1112 FILLER_111_35
*1113 FILLER_111_47
*1114 FILLER_112_1013
*1115 FILLER_112_1025
*1116 FILLER_112_1037
*1117 FILLER_112_1039
*1118 FILLER_112_21
*1119 FILLER_112_27
*1120 FILLER_112_29
*1121 FILLER_112_41
*1122 FILLER_112_49
*1123 FILLER_112_9
*1124 FILLER_113_1013
*1125 FILLER_113_1025
*1126 FILLER_113_1037
*1127 FILLER_113_15
*1128 FILLER_113_27
*1129 FILLER_113_3
*1130 FILLER_113_39
*1131 FILLER_113_47
*1132 FILLER_114_1013
*1133 FILLER_114_1025
*1134 FILLER_114_1037
*1135 FILLER_114_1039
*1136 FILLER_114_1047
*1137 FILLER_114_15
*1138 FILLER_114_27
*1139 FILLER_114_29
*1140 FILLER_114_3
*1141 FILLER_114_41
*1142 FILLER_114_49
*1143 FILLER_115_1013
*1144 FILLER_115_1025
*1145 FILLER_115_1037
*1146 FILLER_115_21
*1147 FILLER_115_33
*1148 FILLER_115_45
*1149 FILLER_115_49
*1150 FILLER_115_9
*1151 FILLER_116_1013
*1152 FILLER_116_1025
*1153 FILLER_116_1037
*1154 FILLER_116_1039
*1155 FILLER_116_21
*1156 FILLER_116_27
*1157 FILLER_116_29
*1158 FILLER_116_41
*1159 FILLER_116_49
*1160 FILLER_116_9
*1161 FILLER_117_1013
*1162 FILLER_117_1025
*1163 FILLER_117_1037
*1164 FILLER_117_15
*1165 FILLER_117_27
*1166 FILLER_117_3
*1167 FILLER_117_39
*1168 FILLER_117_47
*1169 FILLER_118_1013
*1170 FILLER_118_1025
*1171 FILLER_118_1037
*1172 FILLER_118_1039
*1173 FILLER_118_1047
*1174 FILLER_118_15
*1175 FILLER_118_27
*1176 FILLER_118_29
*1177 FILLER_118_3
*1178 FILLER_118_41
*1179 FILLER_118_49
*1180 FILLER_119_1013
*1181 FILLER_119_1025
*1182 FILLER_119_1037
*1183 FILLER_119_21
*1184 FILLER_119_33
*1185 FILLER_119_45
*1186 FILLER_119_49
*1187 FILLER_119_9
*1188 FILLER_11_1013
*1189 FILLER_11_1025
*1190 FILLER_11_1037
*1191 FILLER_11_15
*1192 FILLER_11_27
*1193 FILLER_11_3
*1194 FILLER_11_39
*1195 FILLER_11_47
*1196 FILLER_120_1013
*1197 FILLER_120_1025
*1198 FILLER_120_1037
*1199 FILLER_120_1039
*1200 FILLER_120_1047
*1201 FILLER_120_15
*1202 FILLER_120_27
*1203 FILLER_120_29
*1204 FILLER_120_3
*1205 FILLER_120_41
*1206 FILLER_120_49
*1207 FILLER_121_1013
*1208 FILLER_121_1025
*1209 FILLER_121_1037
*1210 FILLER_121_21
*1211 FILLER_121_33
*1212 FILLER_121_45
*1213 FILLER_121_49
*1214 FILLER_121_9
*1215 FILLER_122_1013
*1216 FILLER_122_1025
*1217 FILLER_122_1037
*1218 FILLER_122_1039
*1219 FILLER_122_21
*1220 FILLER_122_27
*1221 FILLER_122_29
*1222 FILLER_122_41
*1223 FILLER_122_49
*1224 FILLER_122_9
*1225 FILLER_123_1013
*1226 FILLER_123_1025
*1227 FILLER_123_1037
*1228 FILLER_123_15
*1229 FILLER_123_27
*1230 FILLER_123_3
*1231 FILLER_123_39
*1232 FILLER_123_47
*1233 FILLER_124_1013
*1234 FILLER_124_1025
*1235 FILLER_124_1037
*1236 FILLER_124_1039
*1237 FILLER_124_1047
*1238 FILLER_124_15
*1239 FILLER_124_27
*1240 FILLER_124_29
*1241 FILLER_124_3
*1242 FILLER_125_1013
*1243 FILLER_125_1025
*1244 FILLER_125_1037
*1245 FILLER_125_20
*1246 FILLER_125_32
*1247 FILLER_125_44
*1248 FILLER_125_8
*1249 FILLER_126_1013
*1250 FILLER_126_1025
*1251 FILLER_126_1037
*1252 FILLER_126_1039
*1253 FILLER_126_1043
*1254 FILLER_126_19
*1255 FILLER_126_27
*1256 FILLER_126_29
*1257 FILLER_126_41
*1258 FILLER_126_49
*1259 FILLER_126_7
*1260 FILLER_127_1013
*1261 FILLER_127_1025
*1262 FILLER_127_1037
*1263 FILLER_127_15
*1264 FILLER_127_27
*1265 FILLER_127_3
*1266 FILLER_127_39
*1267 FILLER_127_47
*1268 FILLER_128_1013
*1269 FILLER_128_1025
*1270 FILLER_128_1037
*1271 FILLER_128_1039
*1272 FILLER_128_15
*1273 FILLER_128_27
*1274 FILLER_128_29
*1275 FILLER_128_3
*1276 FILLER_128_41
*1277 FILLER_128_49
*1278 FILLER_129_1013
*1279 FILLER_129_1025
*1280 FILLER_129_1037
*1281 FILLER_129_19
*1282 FILLER_129_31
*1283 FILLER_129_43
*1284 FILLER_129_49
*1285 FILLER_129_7
*1286 FILLER_12_1013
*1287 FILLER_12_1025
*1288 FILLER_12_1037
*1289 FILLER_12_1039
*1290 FILLER_12_1047
*1291 FILLER_12_15
*1292 FILLER_12_27
*1293 FILLER_12_29
*1294 FILLER_12_3
*1295 FILLER_12_41
*1296 FILLER_12_49
*1297 FILLER_130_1013
*1298 FILLER_130_1025
*1299 FILLER_130_1037
*1300 FILLER_130_1039
*1301 FILLER_130_1047
*1302 FILLER_130_15
*1303 FILLER_130_27
*1304 FILLER_130_29
*1305 FILLER_130_3
*1306 FILLER_130_41
*1307 FILLER_130_49
*1308 FILLER_131_1013
*1309 FILLER_131_1025
*1310 FILLER_131_1037
*1311 FILLER_131_1043
*1312 FILLER_131_19
*1313 FILLER_131_31
*1314 FILLER_131_43
*1315 FILLER_131_49
*1316 FILLER_131_7
*1317 FILLER_132_1013
*1318 FILLER_132_1025
*1319 FILLER_132_1037
*1320 FILLER_132_1039
*1321 FILLER_132_19
*1322 FILLER_132_27
*1323 FILLER_132_29
*1324 FILLER_132_41
*1325 FILLER_132_49
*1326 FILLER_132_7
*1327 FILLER_133_1013
*1328 FILLER_133_1025
*1329 FILLER_133_1037
*1330 FILLER_133_15
*1331 FILLER_133_27
*1332 FILLER_133_3
*1333 FILLER_133_39
*1334 FILLER_133_47
*1335 FILLER_134_1013
*1336 FILLER_134_1025
*1337 FILLER_134_1037
*1338 FILLER_134_1039
*1339 FILLER_134_1047
*1340 FILLER_134_15
*1341 FILLER_134_27
*1342 FILLER_134_29
*1343 FILLER_134_3
*1344 FILLER_134_41
*1345 FILLER_134_49
*1346 FILLER_135_1013
*1347 FILLER_135_1025
*1348 FILLER_135_1037
*1349 FILLER_135_1043
*1350 FILLER_135_19
*1351 FILLER_135_31
*1352 FILLER_135_43
*1353 FILLER_135_49
*1354 FILLER_135_7
*1355 FILLER_136_1013
*1356 FILLER_136_1025
*1357 FILLER_136_1037
*1358 FILLER_136_1039
*1359 FILLER_136_1043
*1360 FILLER_136_19
*1361 FILLER_136_27
*1362 FILLER_136_29
*1363 FILLER_136_41
*1364 FILLER_136_49
*1365 FILLER_136_7
*1366 FILLER_137_1013
*1367 FILLER_137_1025
*1368 FILLER_137_1037
*1369 FILLER_137_15
*1370 FILLER_137_27
*1371 FILLER_137_3
*1372 FILLER_137_39
*1373 FILLER_137_47
*1374 FILLER_138_1013
*1375 FILLER_138_1025
*1376 FILLER_138_1037
*1377 FILLER_138_1039
*1378 FILLER_138_1047
*1379 FILLER_138_15
*1380 FILLER_138_27
*1381 FILLER_138_29
*1382 FILLER_138_3
*1383 FILLER_138_41
*1384 FILLER_138_49
*1385 FILLER_139_1013
*1386 FILLER_139_1025
*1387 FILLER_139_1037
*1388 FILLER_139_1043
*1389 FILLER_139_19
*1390 FILLER_139_31
*1391 FILLER_139_43
*1392 FILLER_139_49
*1393 FILLER_139_7
*1394 FILLER_13_1013
*1395 FILLER_13_1025
*1396 FILLER_13_1037
*1397 FILLER_13_15
*1398 FILLER_13_27
*1399 FILLER_13_3
*1400 FILLER_13_39
*1401 FILLER_13_47
*1402 FILLER_140_1013
*1403 FILLER_140_1025
*1404 FILLER_140_1037
*1405 FILLER_140_1039
*1406 FILLER_140_1047
*1407 FILLER_140_15
*1408 FILLER_140_27
*1409 FILLER_140_29
*1410 FILLER_140_3
*1411 FILLER_140_41
*1412 FILLER_140_49
*1413 FILLER_141_1013
*1414 FILLER_141_1025
*1415 FILLER_141_1037
*1416 FILLER_141_19
*1417 FILLER_141_31
*1418 FILLER_141_43
*1419 FILLER_141_49
*1420 FILLER_141_7
*1421 FILLER_142_1013
*1422 FILLER_142_1025
*1423 FILLER_142_1037
*1424 FILLER_142_1039
*1425 FILLER_142_1043
*1426 FILLER_142_19
*1427 FILLER_142_27
*1428 FILLER_142_29
*1429 FILLER_142_41
*1430 FILLER_142_49
*1431 FILLER_142_7
*1432 FILLER_143_1013
*1433 FILLER_143_1025
*1434 FILLER_143_1037
*1435 FILLER_143_15
*1436 FILLER_143_27
*1437 FILLER_143_3
*1438 FILLER_143_39
*1439 FILLER_143_47
*1440 FILLER_144_1013
*1441 FILLER_144_1025
*1442 FILLER_144_1037
*1443 FILLER_144_1039
*1444 FILLER_144_1047
*1445 FILLER_144_15
*1446 FILLER_144_27
*1447 FILLER_144_29
*1448 FILLER_144_3
*1449 FILLER_144_41
*1450 FILLER_144_49
*1451 FILLER_145_1013
*1452 FILLER_145_1025
*1453 FILLER_145_1037
*1454 FILLER_145_1043
*1455 FILLER_145_19
*1456 FILLER_145_31
*1457 FILLER_145_43
*1458 FILLER_145_49
*1459 FILLER_145_7
*1460 FILLER_146_1013
*1461 FILLER_146_1025
*1462 FILLER_146_1037
*1463 FILLER_146_1039
*1464 FILLER_146_1043
*1465 FILLER_146_19
*1466 FILLER_146_27
*1467 FILLER_146_29
*1468 FILLER_146_41
*1469 FILLER_146_49
*1470 FILLER_146_7
*1471 FILLER_147_1013
*1472 FILLER_147_1025
*1473 FILLER_147_1037
*1474 FILLER_147_15
*1475 FILLER_147_27
*1476 FILLER_147_3
*1477 FILLER_147_39
*1478 FILLER_147_47
*1479 FILLER_148_1013
*1480 FILLER_148_1025
*1481 FILLER_148_1037
*1482 FILLER_148_1039
*1483 FILLER_148_1047
*1484 FILLER_148_15
*1485 FILLER_148_27
*1486 FILLER_148_29
*1487 FILLER_148_3
*1488 FILLER_148_41
*1489 FILLER_148_49
*1490 FILLER_149_1013
*1491 FILLER_149_1025
*1492 FILLER_149_1037
*1493 FILLER_149_1043
*1494 FILLER_149_19
*1495 FILLER_149_31
*1496 FILLER_149_43
*1497 FILLER_149_49
*1498 FILLER_149_7
*1499 FILLER_14_1013
*1500 FILLER_14_1025
*1501 FILLER_14_1037
*1502 FILLER_14_1039
*1503 FILLER_14_1047
*1504 FILLER_14_15
*1505 FILLER_14_27
*1506 FILLER_14_29
*1507 FILLER_14_3
*1508 FILLER_14_41
*1509 FILLER_14_49
*1510 FILLER_150_1013
*1511 FILLER_150_1025
*1512 FILLER_150_1037
*1513 FILLER_150_1039
*1514 FILLER_150_1047
*1515 FILLER_150_15
*1516 FILLER_150_27
*1517 FILLER_150_29
*1518 FILLER_150_3
*1519 FILLER_150_41
*1520 FILLER_150_49
*1521 FILLER_151_1013
*1522 FILLER_151_1025
*1523 FILLER_151_1037
*1524 FILLER_151_1043
*1525 FILLER_151_19
*1526 FILLER_151_31
*1527 FILLER_151_43
*1528 FILLER_151_49
*1529 FILLER_151_7
*1530 FILLER_152_1013
*1531 FILLER_152_1025
*1532 FILLER_152_1037
*1533 FILLER_152_1039
*1534 FILLER_152_1043
*1535 FILLER_152_19
*1536 FILLER_152_27
*1537 FILLER_152_29
*1538 FILLER_152_41
*1539 FILLER_152_49
*1540 FILLER_152_7
*1541 FILLER_153_1013
*1542 FILLER_153_1025
*1543 FILLER_153_1037
*1544 FILLER_153_15
*1545 FILLER_153_27
*1546 FILLER_153_3
*1547 FILLER_153_39
*1548 FILLER_153_47
*1549 FILLER_154_1013
*1550 FILLER_154_1025
*1551 FILLER_154_1037
*1552 FILLER_154_1039
*1553 FILLER_154_1047
*1554 FILLER_154_15
*1555 FILLER_154_27
*1556 FILLER_154_29
*1557 FILLER_154_3
*1558 FILLER_154_41
*1559 FILLER_154_49
*1560 FILLER_155_1013
*1561 FILLER_155_1025
*1562 FILLER_155_1037
*1563 FILLER_155_1043
*1564 FILLER_155_19
*1565 FILLER_155_31
*1566 FILLER_155_43
*1567 FILLER_155_49
*1568 FILLER_155_7