*SPEF "ieee 1481-1999"
*DESIGN "intro_2_stopwatch"
*DATE "23:36:58 Thursday April 24, 2025"
*VENDOR "The OpenROAD Project"
*PROGRAM "OpenROAD"
*VERSION "edf00dff99f6c40d67a30c0e22a8191c5d2ed9d6"
*DESIGN_FLOW "NAME_SCOPE LOCAL" "PIN_CAP NONE"
*DIVIDER /
*DELIMITER :
*BUS_DELIMITER []
*T_UNIT 1 NS
*C_UNIT 1 PF
*R_UNIT 1 OHM
*L_UNIT 1 HENRY

*NAME_MAP
*1 BTN[0]
*2 BTN[1]
*3 BTN[2]
*4 BTN[3]
*5 CLK_10MHZ
*6 D0_AN_0
*7 D0_AN_1
*8 net52
*9 net53
*10 D0_SEG[0]
*11 D0_SEG[1]
*12 D0_SEG[2]
*13 D0_SEG[3]
*14 D0_SEG[4]
*15 D0_SEG[5]
*16 D0_SEG[6]
*17 net54
*20 _0000_
*21 _0001_
*22 _0002_
*23 _0003_
*24 _0004_
*25 _0005_
*26 _0006_
*27 _0007_
*28 _0008_
*29 _0009_
*30 _0010_
*31 _0011_
*32 _0012_
*33 _0013_
*34 _0014_
*35 _0015_
*36 _0016_
*37 _0017_
*38 _0018_
*39 _0019_
*40 _0020_
*41 _0021_
*42 _0022_
*43 _0023_
*44 _0024_
*45 _0025_
*46 _0026_
*47 _0027_
*48 _0028_
*49 _0029_
*50 _0030_
*51 _0031_
*52 _0032_
*53 _0033_
*54 _0034_
*55 _0035_
*56 _0036_
*57 _0037_
*58 _0038_
*59 _0039_
*60 _0040_
*61 _0041_
*62 _0042_
*63 _0043_
*64 _0044_
*65 _0045_
*66 _0046_
*67 _0047_
*68 _0048_
*69 _0049_
*70 _0050_
*71 _0051_
*72 _0052_
*73 _0053_
*74 _0054_
*75 _0055_
*76 _0056_
*77 _0057_
*78 _0058_
*79 _0059_
*80 _0060_
*81 _0061_
*82 _0062_
*83 _0063_
*84 _0064_
*85 _0065_
*86 _0066_
*87 _0067_
*88 _0068_
*89 _0069_
*90 _0070_
*91 _0071_
*92 _0072_
*93 _0073_
*94 _0074_
*95 _0075_
*96 _0076_
*97 _0077_
*98 _0078_
*99 _0079_
*100 _0080_
*101 _0081_
*102 _0082_
*103 _0083_
*104 _0084_
*105 _0085_
*106 _0086_
*107 _0087_
*108 _0088_
*109 _0089_
*110 _0090_
*111 _0091_
*112 _0092_
*113 _0093_
*114 _0094_
*115 _0095_
*116 _0096_
*117 _0097_
*118 _0098_
*119 _0099_
*120 _0100_
*121 _0101_
*122 _0102_
*123 _0103_
*124 _0104_
*125 _0105_
*126 _0106_
*127 _0107_
*128 _0108_
*129 _0109_
*130 _0110_
*131 _0111_
*132 _0112_
*133 _0113_
*134 _0114_
*135 _0115_
*136 _0116_
*137 _0117_
*138 _0118_
*139 _0119_
*140 _0120_
*141 _0121_
*142 _0122_
*143 _0123_
*144 _0124_
*145 _0125_
*146 _0126_
*147 _0127_
*148 _0128_
*149 _0129_
*150 _0130_
*151 _0131_
*152 _0132_
*153 _0133_
*154 _0134_
*155 _0135_
*156 _0136_
*157 _0137_
*158 _0138_
*159 _0139_
*160 _0140_
*161 _0141_
*162 _0142_
*163 _0143_
*164 _0144_
*165 _0145_
*166 _0146_
*167 _0147_
*168 _0148_
*169 _0149_
*170 _0150_
*171 _0151_
*172 _0152_
*173 _0153_
*174 _0154_
*175 _0155_
*176 _0156_
*177 _0157_
*178 _0158_
*179 _0159_
*180 _0160_
*181 _0161_
*182 _0162_
*183 _0163_
*184 _0164_
*185 _0165_
*186 _0166_
*187 _0167_
*188 _0168_
*189 _0169_
*190 _0170_
*191 _0171_
*192 _0172_
*193 _0173_
*194 _0174_
*195 _0175_
*196 _0176_
*197 _0177_
*198 _0178_
*199 _0179_
*200 _0180_
*201 _0181_
*202 _0182_
*203 _0183_
*204 _0184_
*205 _0185_
*206 _0186_
*207 _0187_
*208 _0188_
*209 _0189_
*210 _0190_
*211 _0191_
*212 _0192_
*213 _0193_
*214 _0194_
*215 _0195_
*216 _0196_
*217 _0197_
*218 _0198_
*219 _0199_
*220 _0200_
*221 _0201_
*222 _0202_
*223 _0203_
*224 _0204_
*225 _0205_
*226 _0206_
*227 _0207_
*228 _0208_
*229 _0209_
*230 _0210_
*231 _0211_
*232 _0212_
*233 _0213_
*234 _0214_
*235 _0215_
*236 _0216_
*237 _0217_
*238 _0218_
*239 _0219_
*240 _0220_
*241 _0221_
*242 _0222_
*243 _0223_
*244 _0224_
*245 _0225_
*246 _0226_
*247 _0227_
*248 _0228_
*249 _0229_
*250 _0230_
*251 _0231_
*252 _0232_
*253 _0233_
*254 _0234_
*255 _0235_
*256 _0236_
*257 _0237_
*258 _0238_
*259 _0239_
*260 _0240_
*261 _0241_
*262 _0242_
*263 _0243_
*264 _0244_
*265 _0245_
*266 _0246_
*267 _0247_
*268 _0248_
*269 _0249_
*270 _0250_
*271 _0251_
*272 _0252_
*273 _0253_
*274 _0254_
*275 _0255_
*276 _0256_
*277 _0257_
*278 _0258_
*279 _0259_
*280 _0260_
*281 _0261_
*282 _0262_
*283 _0263_
*284 _0264_
*285 _0265_
*286 _0266_
*287 _0267_
*288 _0268_
*289 _0269_
*290 _0270_
*291 _0271_
*292 _0272_
*293 _0273_
*294 _0274_
*295 _0275_
*296 _0276_
*297 _0277_
*298 _0278_
*299 _0279_
*300 _0280_
*301 _0281_
*302 _0282_
*303 _0283_
*304 _0284_
*305 _0285_
*306 _0286_
*307 _0287_
*308 _0288_
*309 _0289_
*310 _0290_
*311 _0291_
*312 _0292_
*313 _0293_
*314 _0294_
*315 _0295_
*316 _0296_
*317 _0297_
*318 _0298_
*319 _0299_
*320 _0300_
*321 _0301_
*322 _0302_
*323 _0303_
*324 _0304_
*325 _0305_
*326 _0306_
*327 _0307_
*328 _0308_
*329 _0309_
*330 _0310_
*331 _0311_
*332 _0312_
*333 _0313_
*334 _0314_
*335 _0315_
*336 _0316_
*337 _0317_
*338 _0318_
*339 _0319_
*340 _0320_
*341 _0321_
*342 _0322_
*343 _0323_
*344 _0324_
*345 _0325_
*346 _0326_
*347 _0327_
*348 _0328_
*349 _0329_
*350 _0330_
*351 _0331_
*352 _0332_
*353 _0333_
*354 _0334_
*355 _0335_
*356 _0336_
*357 _0337_
*358 _0338_
*359 _0339_
*360 _0340_
*361 _0341_
*362 _0342_
*363 _0343_
*364 _0344_
*365 _0345_
*366 _0346_
*367 _0347_
*368 _0348_
*369 _0349_
*370 _0350_
*371 _0351_
*372 _0352_
*373 _0353_
*374 _0354_
*375 _0355_
*376 _0356_
*377 _0357_
*378 _0358_
*379 _0359_
*380 _0360_
*381 _0361_
*382 _0362_
*383 _0363_
*384 _0364_
*385 _0365_
*386 _0366_
*387 _0367_
*388 _0368_
*389 _0369_
*390 _0370_
*391 _0371_
*392 _0372_
*393 _0373_
*394 _0374_
*395 _0375_
*396 _0376_
*397 _0377_
*398 _0378_
*399 _0379_
*400 _0380_
*401 _0381_
*402 _0382_
*403 _0383_
*404 _0384_
*405 _0385_
*406 _0386_
*407 _0387_
*408 _0388_
*409 _0389_
*410 _0390_
*411 _0391_
*412 _0392_
*413 _0393_
*414 _0394_
*415 _0395_
*416 _0396_
*417 _0397_
*418 _0398_
*419 _0399_
*420 _0400_
*421 _0401_
*422 _0402_
*423 _0403_
*424 _0404_
*425 _0405_
*426 _0406_
*427 _0407_
*428 _0408_
*429 _0409_
*430 _0410_
*431 _0411_
*432 _0412_
*433 _0413_
*434 _0414_
*435 _0415_
*436 _0416_
*437 _0417_
*438 _0418_
*439 _0419_
*440 _0420_
*441 _0421_
*442 _0422_
*443 _0423_
*444 _0424_
*445 _0425_
*446 _0426_
*447 _0427_
*448 _0428_
*449 _0429_
*450 _0430_
*451 _0431_
*452 _0432_
*453 _0433_
*454 _0434_
*455 _0435_
*456 _0436_
*457 _0437_
*458 _0438_
*459 _0439_
*460 _0440_
*461 _0441_
*462 _0442_
*463 _0443_
*464 _0444_
*465 _0445_
*466 _0446_
*467 _0447_
*468 _0448_
*469 _0449_
*470 _0450_
*471 _0451_
*472 _0452_
*473 _0453_
*474 _0454_
*475 _0455_
*476 _0456_
*477 _0457_
*478 _0458_
*479 _0459_
*480 _0460_
*481 _0461_
*482 _0462_
*483 _0463_
*484 _0464_
*485 _0465_
*486 _0466_
*487 _0467_
*488 _0468_
*489 _0469_
*490 _0470_
*491 _0471_
*492 _0472_
*493 _0473_
*494 _0474_
*495 _0475_
*496 _0476_
*497 _0477_
*498 _0478_
*499 _0479_
*500 _0480_
*501 _0481_
*502 _0482_
*503 _0483_
*504 _0484_
*505 _0485_
*506 _0486_
*507 _0487_
*508 _0488_
*509 _0489_
*510 _0490_
*511 _0491_
*512 _0492_
*513 _0493_
*514 _0494_
*515 _0495_
*516 _0496_
*517 _0497_
*518 _0498_
*519 _0499_
*520 _0500_
*521 _0501_
*522 _0502_
*523 _0503_
*524 _0504_
*525 _0505_
*526 _0506_
*527 _0507_
*528 _0508_
*529 _0509_
*530 _0510_
*531 _0511_
*532 _0512_
*533 _0513_
*534 _0514_
*535 _0515_
*536 _0516_
*537 _0517_
*538 _0518_
*539 _0519_
*540 _0520_
*541 _0521_
*542 _0522_
*543 _0523_
*544 _0524_
*545 _0525_
*546 _0526_
*547 _0527_
*548 _0528_
*549 _0529_
*550 _0530_
*551 _0531_
*552 _0532_
*553 _0533_
*554 _0534_
*555 _0535_
*556 _0536_
*557 _0537_
*558 _0538_
*559 _0539_
*560 _0540_
*561 _0541_
*562 _0542_
*563 _0543_
*564 _0544_
*565 _0545_
*566 _0546_
*567 _0547_
*568 _0548_
*569 _0549_
*570 _0550_
*571 _0551_
*572 _0552_
*573 _0553_
*574 _0554_
*575 _0555_
*576 _0556_
*577 _0557_
*578 _0558_
*579 _0559_
*580 _0560_
*581 _0561_
*582 _0562_
*583 _0563_
*584 _0564_
*585 _0565_
*586 _0566_
*587 _0567_
*588 _0568_
*589 _0569_
*590 _0570_
*591 _0571_
*592 _0572_
*593 _0573_
*594 _0574_
*595 _0575_
*596 _0576_
*597 _0577_
*598 _0578_
*599 _0579_
*600 _0580_
*601 _0581_
*602 _0582_
*603 _0583_
*604 _0584_
*605 _0585_
*606 _0586_
*607 _0587_
*608 _0588_
*609 _0589_
*610 _0590_
*611 _0591_
*612 _0592_
*613 _0593_
*614 _0594_
*615 _0595_
*616 _0596_
*617 _0597_
*618 _0598_
*619 _0599_
*620 _0600_
*621 _0601_
*622 _0602_
*623 _0603_
*624 _0604_
*625 _0605_
*626 _0606_
*627 _0607_
*628 _0608_
*629 _0609_
*630 _0610_
*631 _0611_
*632 _0612_
*633 _0613_
*634 _0614_
*635 _0615_
*636 _0616_
*637 _0617_
*638 _0618_
*639 _0619_
*640 _0620_
*641 _0621_
*642 _0622_
*643 _0623_
*644 _0624_
*645 _0625_
*646 _0626_
*647 _0627_
*648 _0628_
*649 _0629_
*650 _0630_
*651 _0631_
*652 _0632_
*653 _0633_
*654 _0634_
*655 _0635_
*656 _0636_
*657 _0637_
*658 _0638_
*659 _0639_
*660 _0640_
*661 _0641_
*662 _0642_
*663 _0643_
*664 _0644_
*665 _0645_
*666 _0646_
*667 _0647_
*668 _0648_
*669 _0649_
*670 _0650_
*671 _0651_
*672 _0652_
*673 _0653_
*674 _0654_
*675 _0655_
*676 _0656_
*677 _0657_
*678 _0658_
*679 _0659_
*680 _0660_
*681 _0661_
*682 _0662_
*683 _0663_
*684 _0664_
*685 _0665_
*686 _0666_
*687 _0667_
*688 _0668_
*689 _0669_
*690 _0670_
*691 _0671_
*692 _0672_
*693 _0673_
*694 _0674_
*695 _0675_
*696 _0676_
*697 _0677_
*698 _0678_
*699 _0679_
*700 _0680_
*701 _0681_
*702 _0682_
*703 _0683_
*704 _0684_
*705 _0685_
*706 _0686_
*707 _0687_
*708 _0688_
*709 _0689_
*710 _0690_
*711 _0691_
*712 _0692_
*713 _0693_
*714 _0694_
*715 _0695_
*716 _0696_
*717 _0697_
*718 _0698_
*719 _0699_
*720 _0700_
*721 _0701_
*722 _0702_
*723 _0703_
*724 _0704_
*725 _0705_
*726 _0706_
*727 _0707_
*728 _0708_
*729 _0709_
*730 _0710_
*731 _0711_
*732 _0712_
*733 _0713_
*734 _0714_
*735 _0715_
*736 _0716_
*737 _0717_
*738 _0718_
*739 _0719_
*740 _0720_
*741 _0721_
*742 _0722_
*743 _0723_
*744 _0724_
*745 _0725_
*746 _0726_
*747 _0727_
*748 _0728_
*749 _0729_
*750 _0730_
*751 _0731_
*752 _0732_
*753 _0733_
*754 _0734_
*755 _0735_
*756 _0736_
*757 _0737_
*758 _0738_
*759 _0739_
*760 _0740_
*761 _0741_
*762 _0742_
*763 _0743_
*764 _0744_
*765 _0745_
*766 _0746_
*767 _0747_
*768 _0748_
*769 _0749_
*770 _0750_
*771 _0751_
*772 _0752_
*773 _0753_
*774 _0754_
*775 _0755_
*776 _0756_
*777 _0757_
*778 _0758_
*779 _0759_
*780 _0760_
*781 _0761_
*782 _0762_
*783 _0763_
*784 _0764_
*785 _0765_
*786 _0766_
*787 _0767_
*788 _0768_
*789 _0769_
*790 _0770_
*791 _0771_
*792 _0772_
*793 _0773_
*794 _0774_
*795 _0775_
*796 _0776_
*797 _0777_
*798 _0778_
*799 _0779_
*800 _0780_
*801 _0781_
*802 _0782_
*803 _0783_
*804 _0784_
*805 _0785_
*806 _0786_
*807 bcd_num\[0\]
*808 bcd_num\[1\]
*809 bcd_num\[2\]
*810 bcd_num\[3\]
*811 bcd_num\[4\]
*812 bcd_num\[5\]
*813 bcd_num\[6\]
*814 bcd_num\[7\]
*815 clknet_0_CLK_10MHZ
*816 clknet_3_0__leaf_CLK_10MHZ
*817 clknet_3_1__leaf_CLK_10MHZ
*818 clknet_3_2__leaf_CLK_10MHZ
*819 clknet_3_3__leaf_CLK_10MHZ
*820 clknet_3_4__leaf_CLK_10MHZ
*821 clknet_3_5__leaf_CLK_10MHZ
*822 clknet_3_6__leaf_CLK_10MHZ
*823 clknet_3_7__leaf_CLK_10MHZ
*824 clock_div\.cycles\[0\]
*825 clock_div\.cycles\[10\]
*826 clock_div\.cycles\[11\]
*827 clock_div\.cycles\[12\]
*828 clock_div\.cycles\[13\]
*829 clock_div\.cycles\[14\]
*830 clock_div\.cycles\[15\]
*831 clock_div\.cycles\[16\]
*832 clock_div\.cycles\[17\]
*833 clock_div\.cycles\[18\]
*834 clock_div\.cycles\[19\]
*835 clock_div\.cycles\[1\]
*836 clock_div\.cycles\[20\]
*837 clock_div\.cycles\[21\]
*838 clock_div\.cycles\[22\]
*839 clock_div\.cycles\[23\]
*840 clock_div\.cycles\[24\]
*841 clock_div\.cycles\[25\]
*842 clock_div\.cycles\[26\]
*843 clock_div\.cycles\[27\]
*844 clock_div\.cycles\[28\]
*845 clock_div\.cycles\[29\]
*846 clock_div\.cycles\[2\]
*847 clock_div\.cycles\[30\]
*848 clock_div\.cycles\[31\]
*849 clock_div\.cycles\[3\]
*850 clock_div\.cycles\[4\]
*851 clock_div\.cycles\[5\]
*852 clock_div\.cycles\[6\]
*853 clock_div\.cycles\[7\]
*854 clock_div\.cycles\[8\]
*855 clock_div\.cycles\[9\]
*856 clock_div\.second_tick
*857 digit_scanner\.period_counter\[0\]
*858 digit_scanner\.period_counter\[10\]
*859 digit_scanner\.period_counter\[11\]
*860 digit_scanner\.period_counter\[12\]
*861 digit_scanner\.period_counter\[13\]
*862 digit_scanner\.period_counter\[14\]
*863 digit_scanner\.period_counter\[15\]
*864 digit_scanner\.period_counter\[1\]
*865 digit_scanner\.period_counter\[2\]
*866 digit_scanner\.period_counter\[3\]
*867 digit_scanner\.period_counter\[4\]
*868 digit_scanner\.period_counter\[5\]
*869 digit_scanner\.period_counter\[6\]
*870 digit_scanner\.period_counter\[7\]
*871 digit_scanner\.period_counter\[8\]
*872 digit_scanner\.period_counter\[9\]
*873 fsm_inst1\.currentState\[0\]
*874 fsm_inst1\.currentState\[1\]
*875 net1
*876 net10
*877 net100
*878 net101
*879 net102
*880 net11
*881 net12
*882 net13
*883 net14
*884 net15
*885 net16
*886 net17
*887 net18
*888 net19
*889 net2
*890 net20
*891 net21
*892 net22
*893 net23
*894 net24
*895 net25
*896 net26
*897 net27
*898 net28
*899 net29
*900 net3
*901 net30
*902 net31
*903 net32
*904 net33
*905 net34
*906 net35
*907 net36
*908 net37
*909 net38
*910 net39
*911 net4
*912 net40
*913 net41
*914 net42
*915 net43
*916 net44
*917 net45
*918 net46
*919 net47
*920 net48
*921 net49
*922 net5
*923 net50
*924 net51
*925 net55
*926 net56
*927 net57
*928 net58
*929 net59
*930 net6
*931 net60
*932 net61
*933 net62
*934 net63
*935 net64
*936 net65
*937 net66
*938 net67
*939 net68
*940 net69
*941 net7
*942 net70
*943 net71
*944 net72
*945 net73
*946 net74
*947 net75
*948 net76
*949 net77
*950 net78
*951 net79
*952 net8
*953 net80
*954 net81
*955 net82
*956 net83
*957 net84
*958 net85
*959 net86
*960 net87
*961 net88
*962 net89
*963 net9
*964 net90
*965 net91
*966 net92
*967 net93
*968 net94
*969 net95
*970 net96
*971 net97
*972 net98
*973 net99
*974 sync_clear\.q
*975 sync_clear\.sync_1
*976 sync_clear\.sync_2
*977 sync_one\.q
*978 sync_one\.sync_1
*979 sync_one\.sync_2
*980 sync_pause\.q
*981 sync_pause\.sync_1
*982 sync_pause\.sync_2
*983 sync_ten\.q
*984 sync_ten\.sync_1
*985 sync_ten\.sync_2
*986 FILLER_0_102
*987 FILLER_0_110
*988 FILLER_0_113
*989 FILLER_0_120
*990 FILLER_0_132
*991 FILLER_0_137
*992 FILLER_0_141
*993 FILLER_0_149
*994 FILLER_0_15
*995 FILLER_0_161
*996 FILLER_0_167
*997 FILLER_0_169
*998 FILLER_0_177
*999 FILLER_0_183
*1000 FILLER_0_195
*1001 FILLER_0_197
*1002 FILLER_0_209
*1003 FILLER_0_221
*1004 FILLER_0_225
*1005 FILLER_0_237
*1006 FILLER_0_249
*1007 FILLER_0_253
*1008 FILLER_0_265
*1009 FILLER_0_27
*1010 FILLER_0_277
*1011 FILLER_0_281
*1012 FILLER_0_287
*1013 FILLER_0_29
*1014 FILLER_0_3
*1015 FILLER_0_41
*1016 FILLER_0_53
*1017 FILLER_0_57
*1018 FILLER_0_69
*1019 FILLER_0_81
*1020 FILLER_0_85
*1021 FILLER_0_97
*1022 FILLER_10_120
*1023 FILLER_10_139
*1024 FILLER_10_141
*1025 FILLER_10_15
*1026 FILLER_10_155
*1027 FILLER_10_167
*1028 FILLER_10_185
*1029 FILLER_10_193
*1030 FILLER_10_197
*1031 FILLER_10_208
*1032 FILLER_10_220
*1033 FILLER_10_236
*1034 FILLER_10_251
*1035 FILLER_10_253
*1036 FILLER_10_265
*1037 FILLER_10_27
*1038 FILLER_10_277
*1039 FILLER_10_285
*1040 FILLER_10_29
*1041 FILLER_10_3
*1042 FILLER_10_54
*1043 FILLER_10_66
*1044 FILLER_10_83
*1045 FILLER_10_88
*1046 FILLER_10_99
*1047 FILLER_11_103
*1048 FILLER_11_107
*1049 FILLER_11_111
*1050 FILLER_11_113
*1051 FILLER_11_117
*1052 FILLER_11_143
*1053 FILLER_11_15
*1054 FILLER_11_162
*1055 FILLER_11_176
*1056 FILLER_11_223
*1057 FILLER_11_23
*1058 FILLER_11_263
*1059 FILLER_11_275
*1060 FILLER_11_279
*1061 FILLER_11_281
*1062 FILLER_11_287
*1063 FILLER_11_3
*1064 FILLER_11_31
*1065 FILLER_11_37
*1066 FILLER_11_42
*1067 FILLER_11_54
*1068 FILLER_11_63
*1069 FILLER_11_75
*1070 FILLER_11_87
*1071 FILLER_12_107
*1072 FILLER_12_112
*1073 FILLER_12_120
*1074 FILLER_12_128
*1075 FILLER_12_132
*1076 FILLER_12_141
*1077 FILLER_12_15
*1078 FILLER_12_155
*1079 FILLER_12_161
*1080 FILLER_12_186
*1081 FILLER_12_194
*1082 FILLER_12_197
*1083 FILLER_12_218
*1084 FILLER_12_237
*1085 FILLER_12_27
*1086 FILLER_12_270
*1087 FILLER_12_282
*1088 FILLER_12_3
*1089 FILLER_12_34
*1090 FILLER_12_42
*1091 FILLER_12_53
*1092 FILLER_12_70
*1093 FILLER_12_77
*1094 FILLER_12_83
*1095 FILLER_12_85
*1096 FILLER_12_93
*1097 FILLER_13_104
*1098 FILLER_13_120
*1099 FILLER_13_15
*1100 FILLER_13_163
*1101 FILLER_13_167
*1102 FILLER_13_169
*1103 FILLER_13_178
*1104 FILLER_13_190
*1105 FILLER_13_198
*1106 FILLER_13_206
*1107 FILLER_13_218
*1108 FILLER_13_225
*1109 FILLER_13_23
*1110 FILLER_13_237
*1111 FILLER_13_250
*1112 FILLER_13_262
*1113 FILLER_13_274
*1114 FILLER_13_281
*1115 FILLER_13_287
*1116 FILLER_13_3
*1117 FILLER_13_50
*1118 FILLER_13_63
*1119 FILLER_13_92
*1120 FILLER_14_122
*1121 FILLER_14_134
*1122 FILLER_14_15
*1123 FILLER_14_167
*1124 FILLER_14_182
*1125 FILLER_14_190
*1126 FILLER_14_197
*1127 FILLER_14_211
*1128 FILLER_14_234
*1129 FILLER_14_240
*1130 FILLER_14_251
*1131 FILLER_14_253
*1132 FILLER_14_27
*1133 FILLER_14_279
*1134 FILLER_14_287
*1135 FILLER_14_29
*1136 FILLER_14_3
*1137 FILLER_14_41
*1138 FILLER_14_53
*1139 FILLER_14_63
*1140 FILLER_14_71
*1141 FILLER_14_78
*1142 FILLER_14_98
*1143 FILLER_15_106
*1144 FILLER_15_113
*1145 FILLER_15_119
*1146 FILLER_15_131
*1147 FILLER_15_143
*1148 FILLER_15_15
*1149 FILLER_15_155
*1150 FILLER_15_166
*1151 FILLER_15_169
*1152 FILLER_15_186
*1153 FILLER_15_198
*1154 FILLER_15_204
*1155 FILLER_15_219
*1156 FILLER_15_223
*1157 FILLER_15_239
*1158 FILLER_15_251
*1159 FILLER_15_268
*1160 FILLER_15_281
*1161 FILLER_15_287
*1162 FILLER_15_3
*1163 FILLER_15_44
*1164 FILLER_15_74
*1165 FILLER_15_86
*1166 FILLER_15_94
*1167 FILLER_16_112
*1168 FILLER_16_141
*1169 FILLER_16_15
*1170 FILLER_16_163
*1171 FILLER_16_182
*1172 FILLER_16_202
*1173 FILLER_16_214
*1174 FILLER_16_226
*1175 FILLER_16_232
*1176 FILLER_16_244
*1177 FILLER_16_253
*1178 FILLER_16_257
*1179 FILLER_16_269
*1180 FILLER_16_27
*1181 FILLER_16_274
*1182 FILLER_16_286
*1183 FILLER_16_29
*1184 FILLER_16_3
*1185 FILLER_16_37
*1186 FILLER_16_42
*1187 FILLER_16_51
*1188 FILLER_16_63
*1189 FILLER_16_67
*1190 FILLER_16_80
*1191 FILLER_16_90
*1192 FILLER_17_105
*1193 FILLER_17_111
*1194 FILLER_17_113
*1195 FILLER_17_126
*1196 FILLER_17_149
*1197 FILLER_17_161
*1198 FILLER_17_167
*1199 FILLER_17_169
*1200 FILLER_17_181
*1201 FILLER_17_189
*1202 FILLER_17_19
*1203 FILLER_17_195
*1204 FILLER_17_207
*1205 FILLER_17_211
*1206 FILLER_17_219
*1207 FILLER_17_223
*1208 FILLER_17_225
*1209 FILLER_17_237
*1210 FILLER_17_258
*1211 FILLER_17_27
*1212 FILLER_17_277
*1213 FILLER_17_286
*1214 FILLER_17_31
*1215 FILLER_17_78
*1216 FILLER_17_84
*1217 FILLER_17_88
*1218 FILLER_17_96
*1219 FILLER_18_109
*1220 FILLER_18_113
*1221 FILLER_18_117
*1222 FILLER_18_126
*1223 FILLER_18_138
*1224 FILLER_18_141
*1225 FILLER_18_153
*1226 FILLER_18_173
*1227 FILLER_18_183
*1228 FILLER_18_195
*1229 FILLER_18_197
*1230 FILLER_18_215
*1231 FILLER_18_221
*1232 FILLER_18_23
*1233 FILLER_18_243
*1234 FILLER_18_251
*1235 FILLER_18_253
*1236 FILLER_18_259
*1237 FILLER_18_27
*1238 FILLER_18_270
*1239 FILLER_18_282
*1240 FILLER_18_3
*1241 FILLER_18_58
*1242 FILLER_18_85
*1243 FILLER_18_97
*1244 FILLER_19_113
*1245 FILLER_19_125
*1246 FILLER_19_138
*1247 FILLER_19_15
*1248 FILLER_19_161
*1249 FILLER_19_177
*1250 FILLER_19_199
*1251 FILLER_19_207
*1252 FILLER_19_214
*1253 FILLER_19_222
*1254 FILLER_19_225
*1255 FILLER_19_23
*1256 FILLER_19_237
*1257 FILLER_19_278
*1258 FILLER_19_281
*1259 FILLER_19_287
*1260 FILLER_19_3
*1261 FILLER_19_33
*1262 FILLER_19_45
*1263 FILLER_19_53
*1264 FILLER_19_70
*1265 FILLER_19_80
*1266 FILLER_19_92
*1267 FILLER_1_111
*1268 FILLER_1_113
*1269 FILLER_1_126
*1270 FILLER_1_167
*1271 FILLER_1_169
*1272 FILLER_1_18
*1273 FILLER_1_189
*1274 FILLER_1_215
*1275 FILLER_1_222
*1276 FILLER_1_234
*1277 FILLER_1_246
*1278 FILLER_1_258
*1279 FILLER_1_270
*1280 FILLER_1_278
*1281 FILLER_1_281
*1282 FILLER_1_30
*1283 FILLER_1_42
*1284 FILLER_1_54
*1285 FILLER_1_57
*1286 FILLER_1_6
*1287 FILLER_1_69
*1288 FILLER_1_81
*1289 FILLER_1_89
*1290 FILLER_20_101
*1291 FILLER_20_105
*1292 FILLER_20_117
*1293 FILLER_20_129
*1294 FILLER_20_13
*1295 FILLER_20_137
*1296 FILLER_20_145
*1297 FILLER_20_157
*1298 FILLER_20_168
*1299 FILLER_20_180
*1300 FILLER_20_192
*1301 FILLER_20_204
*1302 FILLER_20_227
*1303 FILLER_20_240
*1304 FILLER_20_25
*1305 FILLER_20_261
*1306 FILLER_20_274
*1307 FILLER_20_286
*1308 FILLER_20_3
*1309 FILLER_20_34
*1310 FILLER_20_42
*1311 FILLER_20_49
*1312 FILLER_20_61
*1313 FILLER_20_7
*1314 FILLER_20_82
*1315 FILLER_20_88
*1316 FILLER_20_96
*1317 FILLER_21_103
*1318 FILLER_21_111
*1319 FILLER_21_113
*1320 FILLER_21_119
*1321 FILLER_21_149
*1322 FILLER_21_166
*1323 FILLER_21_169
*1324 FILLER_21_187
*1325 FILLER_21_210
*1326 FILLER_21_222
*1327 FILLER_21_225
*1328 FILLER_21_243
*1329 FILLER_21_255
*1330 FILLER_21_259
*1331 FILLER_21_263
*1332 FILLER_21_279
*1333 FILLER_21_281
*1334 FILLER_21_287
*1335 FILLER_21_30
*1336 FILLER_21_65
*1337 FILLER_21_80
*1338 FILLER_21_88
*1339 FILLER_21_98
*1340 FILLER_22_106
*1341 FILLER_22_118
*1342 FILLER_22_13
*1343 FILLER_22_141
*1344 FILLER_22_154
*1345 FILLER_22_170
*1346 FILLER_22_19
*1347 FILLER_22_191
*1348 FILLER_22_195
*1349 FILLER_22_197
*1350 FILLER_22_209
*1351 FILLER_22_226
*1352 FILLER_22_233
*1353 FILLER_22_237
*1354 FILLER_22_244
*1355 FILLER_22_256
*1356 FILLER_22_268
*1357 FILLER_22_284
*1358 FILLER_22_37
*1359 FILLER_22_49
*1360 FILLER_22_57
*1361 FILLER_22_65
*1362 FILLER_22_85
*1363 FILLER_22_94
*1364 FILLER_23_104
*1365 FILLER_23_145
*1366 FILLER_23_16
*1367 FILLER_23_165
*1368 FILLER_23_176
*1369 FILLER_23_180
*1370 FILLER_23_188
*1371 FILLER_23_20
*1372 FILLER_23_200
*1373 FILLER_23_207
*1374 FILLER_23_211
*1375 FILLER_23_233
*1376 FILLER_23_245
*1377 FILLER_23_249
*1378 FILLER_23_26
*1379 FILLER_23_263
*1380 FILLER_23_275
*1381 FILLER_23_279
*1382 FILLER_23_281
*1383 FILLER_23_287
*1384 FILLER_23_3
*1385 FILLER_23_44
*1386 FILLER_23_55
*1387 FILLER_23_98
*1388 FILLER_24_109
*1389 FILLER_24_121
*1390 FILLER_24_129
*1391 FILLER_24_133
*1392 FILLER_24_139
*1393 FILLER_24_141
*1394 FILLER_24_149
*1395 FILLER_24_155
*1396 FILLER_24_191
*1397 FILLER_24_216
*1398 FILLER_24_228
*1399 FILLER_24_26
*1400 FILLER_24_263
*1401 FILLER_24_276
*1402 FILLER_24_29
*1403 FILLER_24_3
*1404 FILLER_24_45
*1405 FILLER_24_60
*1406 FILLER_24_72
*1407 FILLER_24_81
*1408 FILLER_24_85
*1409 FILLER_24_97
*1410 FILLER_25_111
*1411 FILLER_25_113
*1412 FILLER_25_119
*1413 FILLER_25_143
*1414 FILLER_25_15
*1415 FILLER_25_156
*1416 FILLER_25_169
*1417 FILLER_25_175
*1418 FILLER_25_187
*1419 FILLER_25_199
*1420 FILLER_25_211
*1421 FILLER_25_223
*1422 FILLER_25_225
*1423 FILLER_25_237
*1424 FILLER_25_249
*1425 FILLER_25_266
*1426 FILLER_25_27
*1427 FILLER_25_278
*1428 FILLER_25_281
*1429 FILLER_25_287
*1430 FILLER_25_3
*1431 FILLER_25_57
*1432 FILLER_25_65
*1433 FILLER_25_73
*1434 FILLER_25_88
*1435 FILLER_26_100
*1436 FILLER_26_106
*1437 FILLER_26_126
*1438 FILLER_26_137
*1439 FILLER_26_161
*1440 FILLER_26_173
*1441 FILLER_26_181
*1442 FILLER_26_193
*1443 FILLER_26_197
*1444 FILLER_26_212
*1445 FILLER_26_225
*1446 FILLER_26_25
*1447 FILLER_26_250
*1448 FILLER_26_253
*1449 FILLER_26_265
*1450 FILLER_26_277
*1451 FILLER_26_285
*1452 FILLER_26_29
*1453 FILLER_26_3
*1454 FILLER_26_35
*1455 FILLER_26_39
*1456 FILLER_26_47
*1457 FILLER_26_63
*1458 FILLER_26_75
*1459 FILLER_26_83
*1460 FILLER_26_88
*1461 FILLER_27_103
*1462 FILLER_27_111
*1463 FILLER_27_120
*1464 FILLER_27_140
*1465 FILLER_27_163
*1466 FILLER_27_174
*1467 FILLER_27_200
*1468 FILLER_27_208
*1469 FILLER_27_245
*1470 FILLER_27_273
*1471 FILLER_27_279
*1472 FILLER_27_281
*1473 FILLER_27_287
*1474 FILLER_27_33
*1475 FILLER_27_51
*1476 FILLER_27_55
*1477 FILLER_27_62
*1478 FILLER_27_77
*1479 FILLER_27_83
*1480 FILLER_28_110
*1481 FILLER_28_114
*1482 FILLER_28_119
*1483 FILLER_28_136
*1484 FILLER_28_15
*1485 FILLER_28_189
*1486 FILLER_28_195
*1487 FILLER_28_197
*1488 FILLER_28_203
*1489 FILLER_28_208
*1490 FILLER_28_220
*1491 FILLER_28_232
*1492 FILLER_28_239
*1493 FILLER_28_251
*1494 FILLER_28_26
*1495 FILLER_28_266
*1496 FILLER_28_278
*1497 FILLER_28_286
*1498 FILLER_28_29
*1499 FILLER_28_3
*1500 FILLER_28_37
*1501 FILLER_28_42
*1502 FILLER_28_56
*1503 FILLER_28_63
*1504 FILLER_28_67
*1505 FILLER_28_76
*1506 FILLER_28_85
*1507 FILLER_28_91
*1508 FILLER_29_102
*1509 FILLER_29_11
*1510 FILLER_29_110
*1511 FILLER_29_113
*1512 FILLER_29_142
*1513 FILLER_29_225
*1514 FILLER_29_229
*1515 FILLER_29_250
*1516 FILLER_29_267
*1517 FILLER_29_279
*1518 FILLER_29_281
*1519 FILLER_29_287
*1520 FILLER_29_3
*1521 FILLER_29_36
*1522 FILLER_29_55
*1523 FILLER_29_98
*1524 FILLER_2_118
*1525 FILLER_2_130
*1526 FILLER_2_134
*1527 FILLER_2_15
*1528 FILLER_2_163
*1529 FILLER_2_190
*1530 FILLER_2_197
*1531 FILLER_2_220
*1532 FILLER_2_248
*1533 FILLER_2_253
*1534 FILLER_2_263
*1535 FILLER_2_27
*1536 FILLER_2_275
*1537 FILLER_2_287
*1538 FILLER_2_29
*1539 FILLER_2_3
*1540 FILLER_2_41
*1541 FILLER_2_53
*1542 FILLER_2_65
*1543 FILLER_2_77
*1544 FILLER_2_83
*1545 FILLER_2_98
*1546 FILLER_30_125
*1547 FILLER_30_133
*1548 FILLER_30_139
*1549 FILLER_30_141
*1550 FILLER_30_15
*1551 FILLER_30_176
*1552 FILLER_30_180
*1553 FILLER_30_194
*1554 FILLER_30_197
*1555 FILLER_30_205
*1556 FILLER_30_210
*1557 FILLER_30_218
*1558 FILLER_30_225
*1559 FILLER_30_233
*1560 FILLER_30_239
*1561 FILLER_30_251
*1562 FILLER_30_253
*1563 FILLER_30_265
*1564 FILLER_30_27
*1565 FILLER_30_277
*1566 FILLER_30_285
*1567 FILLER_30_29
*1568 FILLER_30_3
*1569 FILLER_30_67
*1570 FILLER_30_79
*1571 FILLER_30_83
*1572 FILLER_30_89
*1573 FILLER_30_93
*1574 FILLER_31_108
*1575 FILLER_31_136
*1576 FILLER_31_146
*1577 FILLER_31_159
*1578 FILLER_31_167
*1579 FILLER_31_177
*1580 FILLER_31_19
*1581 FILLER_31_195
*1582 FILLER_31_216
*1583 FILLER_31_225
*1584 FILLER_31_242
*1585 FILLER_31_255
*1586 FILLER_31_263
*1587 FILLER_31_27
*1588 FILLER_31_275
*1589 FILLER_31_279
*1590 FILLER_31_281
*1591 FILLER_31_287
*1592 FILLER_31_45
*1593 FILLER_31_65
*1594 FILLER_31_94
*1595 FILLER_32_123
*1596 FILLER_32_194
*1597 FILLER_32_207
*1598 FILLER_32_232
*1599 FILLER_32_260
*1600 FILLER_32_272
*1601 FILLER_32_284
*1602 FILLER_32_29
*1603 FILLER_32_33
*1604 FILLER_32_6
*1605 FILLER_32_82
*1606 FILLER_32_89
*1607 FILLER_32_95
*1608 FILLER_32_99
*1609 FILLER_33_108
*1610 FILLER_33_130
*1611 FILLER_33_142
*1612 FILLER_33_147
*1613 FILLER_33_15
*1614 FILLER_33_155
*1615 FILLER_33_164
*1616 FILLER_33_169
*1617 FILLER_33_181
*1618 FILLER_33_193
*1619 FILLER_33_205
*1620 FILLER_33_212
*1621 FILLER_33_225
*1622 FILLER_33_237
*1623 FILLER_33_245
*1624 FILLER_33_25
*1625 FILLER_33_253
*1626 FILLER_33_265
*1627 FILLER_33_277
*1628 FILLER_33_281
*1629 FILLER_33_287
*1630 FILLER_33_29
*1631 FILLER_33_3
*1632 FILLER_33_52
*1633 FILLER_33_57
*1634 FILLER_33_64
*1635 FILLER_33_76
*1636 FILLER_33_82
*1637 FILLER_33_90
*1638 FILLER_34_106
*1639 FILLER_34_118
*1640 FILLER_34_130
*1641 FILLER_34_138
*1642 FILLER_34_141
*1643 FILLER_34_154
*1644 FILLER_34_158
*1645 FILLER_34_164
*1646 FILLER_34_180
*1647 FILLER_34_201
*1648 FILLER_34_224
*1649 FILLER_34_244
*1650 FILLER_34_253
*1651 FILLER_34_265
*1652 FILLER_34_27
*1653 FILLER_34_277
*1654 FILLER_34_285
*1655 FILLER_34_53
*1656 FILLER_34_64
*1657 FILLER_34_74
*1658 FILLER_34_82
*1659 FILLER_34_88
*1660 FILLER_35_100
*1661 FILLER_35_113
*1662 FILLER_35_12
*1663 FILLER_35_140
*1664 FILLER_35_166
*1665 FILLER_35_180
*1666 FILLER_35_192
*1667 FILLER_35_200
*1668 FILLER_35_209
*1669 FILLER_35_221
*1670 FILLER_35_236
*1671 FILLER_35_248
*1672 FILLER_35_260
*1673 FILLER_35_272
*1674 FILLER_35_281
*1675 FILLER_35_287
*1676 FILLER_35_29
*1677 FILLER_35_38
*1678 FILLER_35_54
*1679 FILLER_35_57
*1680 FILLER_35_6
*1681 FILLER_35_68
*1682 FILLER_35_88
*1683 FILLER_36_102
*1684 FILLER_36_110
*1685 FILLER_36_119
*1686 FILLER_36_139
*1687 FILLER_36_148
*1688 FILLER_36_156
*1689 FILLER_36_160
*1690 FILLER_36_168
*1691 FILLER_36_19
*1692 FILLER_36_194
*1693 FILLER_36_217
*1694 FILLER_36_229
*1695 FILLER_36_241
*1696 FILLER_36_249
*1697 FILLER_36_253
*1698 FILLER_36_265
*1699 FILLER_36_27
*1700 FILLER_36_277
*1701 FILLER_36_285
*1702 FILLER_36_71
*1703 FILLER_36_76
*1704 FILLER_36_81
*1705 FILLER_36_85
*1706 FILLER_36_93
*1707 FILLER_37_11
*1708 FILLER_37_128
*1709 FILLER_37_138
*1710 FILLER_37_167
*1711 FILLER_37_209
*1712 FILLER_37_213
*1713 FILLER_37_223
*1714 FILLER_37_232
*1715 FILLER_37_244
*1716 FILLER_37_256
*1717 FILLER_37_268
*1718 FILLER_37_28
*1719 FILLER_37_281
*1720 FILLER_37_287
*1721 FILLER_37_3
*1722 FILLER_37_38
*1723 FILLER_37_57
*1724 FILLER_37_63
*1725 FILLER_37_67
*1726 FILLER_38_109
*1727 FILLER_38_121
*1728 FILLER_38_149
*1729 FILLER_38_15
*1730 FILLER_38_175
*1731 FILLER_38_193
*1732 FILLER_38_224
*1733 FILLER_38_236
*1734 FILLER_38_248
*1735 FILLER_38_25
*1736 FILLER_38_253
*1737 FILLER_38_265
*1738 FILLER_38_277
*1739 FILLER_38_285
*1740 FILLER_38_3
*1741 FILLER_38_33
*1742 FILLER_38_74
*1743 FILLER_38_82
*1744 FILLER_38_89
*1745 FILLER_38_97
*1746 FILLER_39_10
*1747 FILLER_39_121
*1748 FILLER_39_14
*1749 FILLER_39_153
*1750 FILLER_39_165
*1751 FILLER_39_169
*1752 FILLER_39_181
*1753 FILLER_39_193
*1754 FILLER_39_204
*1755 FILLER_39_216
*1756 FILLER_39_225
*1757 FILLER_39_23
*1758 FILLER_39_237
*1759 FILLER_39_249
*1760 FILLER_39_261
*1761 FILLER_39_273
*1762 FILLER_39_279
*1763 FILLER_39_281
*1764 FILLER_39_287
*1765 FILLER_39_57
*1766 FILLER_39_63
*1767 FILLER_39_71
*1768 FILLER_39_75
*1769 FILLER_39_80
*1770 FILLER_39_92
*1771 FILLER_3_111
*1772 FILLER_3_121
*1773 FILLER_3_133
*1774 FILLER_3_145
*1775 FILLER_3_15
*1776 FILLER_3_166
*1777 FILLER_3_169
*1778 FILLER_3_177
*1779 FILLER_3_189
*1780 FILLER_3_201
*1781 FILLER_3_244
*1782 FILLER_3_250
*1783 FILLER_3_269
*1784 FILLER_3_27
*1785 FILLER_3_277
*1786 FILLER_3_281
*1787 FILLER_3_287
*1788 FILLER_3_3
*1789 FILLER_3_39
*1790 FILLER_3_51
*1791 FILLER_3_55
*1792 FILLER_3_57
*1793 FILLER_3_69
*1794 FILLER_3_81
*1795 FILLER_3_93
*1796 FILLER_40_105
*1797 FILLER_40_136
*1798 FILLER_40_180
*1799 FILLER_40_188
*1800 FILLER_40_193
*1801 FILLER_40_197
*1802 FILLER_40_201
*1803 FILLER_40_226
*1804 FILLER_40_238
*1805 FILLER_40_250
*1806 FILLER_40_253
*1807 FILLER_40_265
*1808 FILLER_40_27
*1809 FILLER_40_277
*1810 FILLER_40_285
*1811 FILLER_40_29
*1812 FILLER_40_41
*1813 FILLER_40_49
*1814 FILLER_40_63
*1815 FILLER_40_71
*1816 FILLER_41_102
*1817 FILLER_41_11
*1818 FILLER_41_110
*1819 FILLER_41_121
*1820 FILLER_41_148
*1821 FILLER_41_169
*1822 FILLER_41_173
*1823 FILLER_41_214
*1824 FILLER_41_22
*1825 FILLER_41_222
*1826 FILLER_41_225
*1827 FILLER_41_237
*1828 FILLER_41_249
*1829 FILLER_41_261
*1830 FILLER_41_273
*1831 FILLER_41_279
*1832 FILLER_41_281
*1833 FILLER_41_287
*1834 FILLER_41_39
*1835 FILLER_41_45
*1836 FILLER_41_50
*1837 FILLER_41_54
*1838 FILLER_41_7
*1839 FILLER_41_98
*1840 FILLER_42_10