*SPEF "ieee 1481-1999"
*DESIGN "matrix_mult"
*DATE "00:04:14 Friday May 02, 2025"
*VENDOR "The OpenROAD Project"
*PROGRAM "OpenROAD"
*VERSION "edf00dff99f6c40d67a30c0e22a8191c5d2ed9d6"
*DESIGN_FLOW "NAME_SCOPE LOCAL" "PIN_CAP NONE"
*DIVIDER /
*DELIMITER :
*BUS_DELIMITER []
*T_UNIT 1 NS
*C_UNIT 1 PF
*R_UNIT 1 OHM
*L_UNIT 1 HENRY

*NAME_MAP
*3 bit_period[0]
*4 bit_period[10]
*5 bit_period[11]
*6 bit_period[12]
*7 bit_period[13]
*8 bit_period[1]
*9 bit_period[2]
*10 bit_period[3]
*11 bit_period[4]
*12 bit_period[5]
*13 bit_period[6]
*14 bit_period[7]
*15 bit_period[8]
*16 bit_period[9]
*17 clk
*18 confirmation
*19 data_read
*20 n_rst
*21 serial_in
*22 serial_out
*23 net40
*24 _0000_
*25 _0001_
*26 _0002_
*27 _0003_
*28 _0004_
*29 _0005_
*30 _0006_
*31 _0007_
*32 _0008_
*33 _0009_
*34 _0010_
*35 _0011_
*36 _0012_
*37 _0013_
*38 _0014_
*39 _0015_
*40 _0016_
*41 _0017_
*42 _0018_
*43 _0019_
*44 _0020_
*45 _0021_
*46 _0022_
*47 _0023_
*48 _0024_
*49 _0025_
*50 _0026_
*51 _0027_
*52 _0028_
*53 _0029_
*54 _0030_
*55 _0031_
*56 _0032_
*57 _0033_
*58 _0034_
*59 _0035_
*60 _0036_
*61 _0037_
*62 _0038_
*63 _0039_
*64 _0040_
*65 _0041_
*66 _0042_
*67 _0043_
*68 _0044_
*69 _0045_
*70 _0046_
*71 _0047_
*72 _0048_
*73 _0049_
*74 _0050_
*75 _0051_
*76 _0052_
*77 _0053_
*78 _0054_
*79 _0055_
*80 _0056_
*81 _0057_
*82 _0058_
*83 _0059_
*84 _0060_
*85 _0061_
*86 _0062_
*87 _0063_
*88 _0064_
*89 _0065_
*90 _0066_
*91 _0067_
*92 _0068_
*93 _0069_
*94 _0070_
*95 _0071_
*96 _0072_
*97 _0073_
*98 _0074_
*99 _0075_
*100 _0076_
*101 _0077_
*102 _0078_
*103 _0079_
*104 _0080_
*105 _0081_
*106 _0082_
*107 _0083_
*108 _0084_
*109 _0085_
*110 _0086_
*111 _0087_
*112 _0088_
*113 _0089_
*114 _0090_
*115 _0091_
*116 _0092_
*117 _0093_
*118 _0094_
*119 _0095_
*120 _0096_
*121 _0097_
*122 _0098_
*123 _0099_
*124 _0100_
*125 _0101_
*126 _0102_
*127 _0103_
*128 _0104_
*129 _0105_
*130 _0106_
*131 _0107_
*132 _0108_
*133 _0109_
*134 _0110_
*135 _0111_
*136 _0112_
*137 _0113_
*138 _0114_
*139 _0115_
*140 _0116_
*141 _0117_
*142 _0118_
*143 _0119_
*144 _0120_
*145 _0121_
*146 _0122_
*147 _0123_
*148 _0124_
*149 _0125_
*150 _0126_
*151 _0127_
*152 _0128_
*153 _0129_
*154 _0130_
*155 _0131_
*156 _0132_
*157 _0133_
*158 _0134_
*159 _0135_
*160 _0136_
*161 _0137_
*162 _0138_
*163 _0139_
*164 _0140_
*165 _0141_
*166 _0142_
*167 _0143_
*168 _0144_
*169 _0145_
*170 _0146_
*171 _0147_
*172 _0148_
*173 _0149_
*174 _0150_
*175 _0151_
*176 _0152_
*177 _0153_
*178 _0154_
*179 _0155_
*180 _0156_
*181 _0157_
*182 _0158_
*183 _0159_
*184 _0160_
*185 _0161_
*186 _0162_
*187 _0163_
*188 _0164_
*189 _0165_
*190 _0166_
*191 _0167_
*192 _0168_
*193 _0169_
*194 _0170_
*195 _0171_
*196 _0172_
*197 _0173_
*198 _0174_
*199 _0175_
*200 _0176_
*201 _0177_
*202 _0178_
*203 _0179_
*204 _0180_
*205 _0181_
*206 _0182_
*207 _0183_
*208 _0184_
*209 _0185_
*210 _0186_
*211 _0187_
*212 _0188_
*213 _0189_
*214 _0190_
*215 _0191_
*216 _0192_
*217 _0193_
*218 _0194_
*219 _0195_
*220 _0196_
*221 _0197_
*222 _0198_
*223 _0199_
*224 _0200_
*225 _0201_
*226 _0202_
*227 _0203_
*228 _0204_
*229 _0205_
*230 _0206_
*231 _0207_
*232 _0208_
*233 _0209_
*234 _0210_
*235 _0211_
*236 _0212_
*237 _0213_
*238 _0214_
*239 _0215_
*240 _0216_
*241 _0217_
*242 _0218_
*243 _0219_
*244 _0220_
*245 _0221_
*246 _0222_
*247 _0223_
*248 _0224_
*249 _0225_
*250 _0226_
*251 _0227_
*252 _0228_
*253 _0229_
*254 _0230_
*255 _0231_
*256 _0232_
*257 _0233_
*258 _0234_
*259 _0235_
*260 _0236_
*261 _0237_
*262 _0238_
*263 _0239_
*264 _0240_
*265 _0241_
*266 _0242_
*267 _0243_
*268 _0244_
*269 _0245_
*270 _0246_
*271 _0247_
*272 _0248_
*273 _0249_
*274 _0250_
*275 _0251_
*276 _0252_
*277 _0253_
*278 _0254_
*279 _0255_
*280 _0256_
*281 _0257_
*282 _0258_
*283 _0259_
*284 _0260_
*285 _0261_
*286 _0262_
*287 _0263_
*288 _0264_
*289 _0265_
*290 _0266_
*291 _0267_
*292 _0268_
*293 _0269_
*294 _0270_
*295 _0271_
*296 _0272_
*297 _0273_
*298 _0274_
*299 _0275_
*300 _0276_
*301 _0277_
*302 _0278_
*303 _0279_
*304 _0280_
*305 _0281_
*306 _0282_
*307 _0283_
*308 _0284_
*309 _0285_
*310 _0286_
*311 _0287_
*312 _0288_
*313 _0289_
*314 _0290_
*315 _0291_
*316 _0292_
*317 _0293_
*318 _0294_
*319 _0295_
*320 _0296_
*321 _0297_
*322 _0298_
*323 _0299_
*324 _0300_
*325 _0301_
*326 _0302_
*327 _0303_
*328 _0304_
*329 _0305_
*330 _0306_
*331 _0307_
*332 _0308_
*333 _0309_
*334 _0310_
*335 _0311_
*336 _0312_
*337 _0313_
*338 _0314_
*339 _0315_
*340 _0316_
*341 _0317_
*342 _0318_
*343 _0319_
*344 _0320_
*345 _0321_
*346 _0322_
*347 _0323_
*348 _0324_
*349 _0325_
*350 _0326_
*351 _0327_
*352 _0328_
*353 _0329_
*354 _0330_
*355 _0331_
*356 _0332_
*357 _0333_
*358 _0334_
*359 _0335_
*360 _0336_
*361 _0337_
*362 _0338_
*363 _0339_
*364 _0340_
*365 _0341_
*366 _0342_
*367 _0343_
*368 _0344_
*369 _0345_
*370 _0346_
*371 _0347_
*372 _0348_
*373 _0349_
*374 _0350_
*375 _0351_
*376 _0352_
*377 _0353_
*378 _0354_
*379 _0355_
*380 _0356_
*381 _0357_
*382 _0358_
*383 _0359_
*384 _0360_
*385 _0361_
*386 _0362_
*387 _0363_
*388 _0364_
*389 _0365_
*390 _0366_
*391 _0367_
*392 _0368_
*393 _0369_
*394 _0370_
*395 _0371_
*396 _0372_
*397 _0373_
*398 _0374_
*399 _0375_
*400 _0376_
*401 _0377_
*402 _0378_
*403 _0379_
*404 _0380_
*405 _0381_
*406 _0382_
*407 _0383_
*408 _0384_
*409 _0385_
*410 _0386_
*411 _0387_
*412 _0388_
*413 _0389_
*414 _0390_
*415 _0391_
*416 _0392_
*417 _0393_
*418 _0394_
*419 _0395_
*420 _0396_
*421 _0397_
*422 _0398_
*423 _0399_
*424 _0400_
*425 _0401_
*426 _0402_
*427 _0403_
*428 _0404_
*429 _0405_
*430 _0406_
*431 _0407_
*432 _0408_
*433 _0409_
*434 _0410_
*435 _0411_
*436 _0412_
*437 _0413_
*438 _0414_
*439 _0415_
*440 _0416_
*441 _0417_
*442 _0418_
*443 _0419_
*444 _0420_
*445 _0421_
*446 _0422_
*447 _0423_
*448 _0424_
*449 _0425_
*450 _0426_
*451 _0427_
*452 _0428_
*453 _0429_
*454 _0430_
*455 _0431_
*456 _0432_
*457 _0433_
*458 _0434_
*459 _0435_
*460 _0436_
*461 _0437_
*462 _0438_
*463 _0439_
*464 _0440_
*465 _0441_
*466 clknet_0_clk
*467 clknet_3_0__leaf_clk
*468 clknet_3_1__leaf_clk
*469 clknet_3_2__leaf_clk
*470 clknet_3_3__leaf_clk
*471 clknet_3_4__leaf_clk
*472 clknet_3_5__leaf_clk
*473 clknet_3_6__leaf_clk
*474 clknet_3_7__leaf_clk
*475 cntrl\.data_ready
*476 cntrl\.framing_error
*477 cntrl\.overrun_error
*478 cntrl\.state\[0\]
*479 cntrl\.state\[1\]
*480 cntrl\.state\[2\]
*481 cntrl\.state\[3\]
*482 cntrl\.state\[4\]
*483 net1
*484 net10
*485 net11
*486 net12
*487 net13
*488 net14
*489 net15
*490 net16
*491 net17
*492 net18
*493 net19
*494 net2
*495 net20
*496 net21
*497 net22
*498 net23
*499 net24
*500 net25
*501 net26
*502 net27
*503 net28
*504 net29
*505 net3
*506 net30
*507 net31
*508 net32
*509 net33
*510 net34
*511 net35
*512 net36
*513 net37
*514 net38
*515 net39
*516 net4
*517 net41
*518 net42
*519 net43
*520 net44
*521 net45
*522 net46
*523 net47
*524 net48
*525 net49
*526 net5
*527 net50
*528 net51
*529 net52
*530 net53
*531 net54
*532 net55
*533 net56
*534 net6
*535 net7
*536 net8
*537 net9
*538 parallel_out1\[0\]
*539 parallel_out1\[1\]
*540 parallel_out1\[2\]
*541 parallel_out1\[3\]
*542 parallel_out1\[4\]
*543 parallel_out1\[5\]
*544 parallel_out1\[6\]
*545 parallel_out1\[7\]
*546 parallel_out2\[0\]
*547 parallel_out2\[1\]
*548 parallel_out2\[2\]
*549 parallel_out2\[3\]
*550 parallel_out2\[4\]
*551 parallel_out2\[5\]
*552 parallel_out2\[6\]
*553 parallel_out2\[7\]
*554 prod_adder\.gen_for_loop\[0\]\.adder_n\.a
*555 prod_adder\.gen_for_loop\[0\]\.adder_n\.b
*556 prod_adder\.gen_for_loop\[1\]\.adder_n\.a
*557 prod_adder\.gen_for_loop\[1\]\.adder_n\.b
*558 prod_adder\.gen_for_loop\[2\]\.adder_n\.a
*559 prod_adder\.gen_for_loop\[2\]\.adder_n\.b
*560 prod_adder\.gen_for_loop\[3\]\.adder_n\.a
*561 prod_adder\.gen_for_loop\[3\]\.adder_n\.b
*562 prod_adder\.gen_for_loop\[4\]\.adder_n\.a
*563 prod_adder\.gen_for_loop\[4\]\.adder_n\.b
*564 prod_adder\.gen_for_loop\[5\]\.adder_n\.a
*565 prod_adder\.gen_for_loop\[5\]\.adder_n\.b
*566 prod_adder\.gen_for_loop\[6\]\.adder_n\.a
*567 prod_adder\.gen_for_loop\[6\]\.adder_n\.b
*568 prod_adder\.gen_for_loop\[7\]\.adder_n\.a
*569 prod_adder\.gen_for_loop\[7\]\.adder_n\.b
*570 rx_data\[0\]
*571 rx_data\[1\]
*572 rx_data\[2\]
*573 rx_data\[3\]
*574 rx_data\[4\]
*575 rx_data\[5\]
*576 rx_data\[6\]
*577 rx_data\[7\]
*578 uart_rcv\.control\.next_state\[0\]
*579 uart_rcv\.control\.next_state\[1\]
*580 uart_rcv\.control\.next_state\[2\]
*581 uart_rcv\.control\.packet_done
*582 uart_rcv\.control\.state\[0\]
*583 uart_rcv\.control\.state\[1\]
*584 uart_rcv\.control\.state\[2\]
*585 uart_rcv\.data_buff\.packet_data\[0\]
*586 uart_rcv\.data_buff\.packet_data\[1\]
*587 uart_rcv\.data_buff\.packet_data\[2\]
*588 uart_rcv\.data_buff\.packet_data\[3\]
*589 uart_rcv\.data_buff\.packet_data\[4\]
*590 uart_rcv\.data_buff\.packet_data\[5\]
*591 uart_rcv\.data_buff\.packet_data\[6\]
*592 uart_rcv\.data_buff\.packet_data\[7\]
*593 uart_rcv\.sbc\.stop_bit
*594 uart_rcv\.sbd\.new_sample
*595 uart_rcv\.sbd\.old_sample
*596 uart_rcv\.sbd\.sync_phase
*597 uart_rcv\.shift_strobe
*598 uart_rcv\.tim\.bit_cnt\[0\]
*599 uart_rcv\.tim\.bit_cnt\[1\]
*600 uart_rcv\.tim\.bit_cnt\[2\]
*601 uart_rcv\.tim\.bit_cnt\[3\]
*602 uart_rcv\.tim\.bit_count\.next_cnt_out\[0\]
*603 uart_rcv\.tim\.bit_count\.next_cnt_out\[1\]
*604 uart_rcv\.tim\.bit_count\.next_cnt_out\[2\]
*605 uart_rcv\.tim\.bit_count\.next_cnt_out\[3\]
*606 uart_rcv\.tim\.bit_count\.next_roflag
*607 uart_rcv\.tim\.clk_cnt\[0\]
*608 uart_rcv\.tim\.clk_cnt\[10\]
*609 uart_rcv\.tim\.clk_cnt\[11\]
*610 uart_rcv\.tim\.clk_cnt\[12\]
*611 uart_rcv\.tim\.clk_cnt\[13\]
*612 uart_rcv\.tim\.clk_cnt\[1\]
*613 uart_rcv\.tim\.clk_cnt\[2\]
*614 uart_rcv\.tim\.clk_cnt\[3\]
*615 uart_rcv\.tim\.clk_cnt\[4\]
*616 uart_rcv\.tim\.clk_cnt\[5\]
*617 uart_rcv\.tim\.clk_cnt\[6\]
*618 uart_rcv\.tim\.clk_cnt\[7\]
*619 uart_rcv\.tim\.clk_cnt\[8\]
*620 uart_rcv\.tim\.clk_cnt\[9\]
*621 uart_rcv\.tim\.clock_count\.next_cnt_out\[0\]
*622 uart_rcv\.tim\.clock_count\.next_cnt_out\[10\]
*623 uart_rcv\.tim\.clock_count\.next_cnt_out\[11\]
*624 uart_rcv\.tim\.clock_count\.next_cnt_out\[12\]
*625 uart_rcv\.tim\.clock_count\.next_cnt_out\[13\]
*626 uart_rcv\.tim\.clock_count\.next_cnt_out\[1\]
*627 uart_rcv\.tim\.clock_count\.next_cnt_out\[2\]
*628 uart_rcv\.tim\.clock_count\.next_cnt_out\[3\]
*629 uart_rcv\.tim\.clock_count\.next_cnt_out\[4\]
*630 uart_rcv\.tim\.clock_count\.next_cnt_out\[5\]
*631 uart_rcv\.tim\.clock_count\.next_cnt_out\[6\]
*632 uart_rcv\.tim\.clock_count\.next_cnt_out\[7\]
*633 uart_rcv\.tim\.clock_count\.next_cnt_out\[8\]
*634 uart_rcv\.tim\.clock_count\.next_cnt_out\[9\]
*635 uart_rcv\.tim\.clock_count\.next_roflag
*636 uart_tx\.clk_cnt\[0\]
*637 uart_tx\.clk_cnt\[10\]
*638 uart_tx\.clk_cnt\[11\]
*639 uart_tx\.clk_cnt\[12\]
*640 uart_tx\.clk_cnt\[13\]
*641 uart_tx\.clk_cnt\[1\]
*642 uart_tx\.clk_cnt\[2\]
*643 uart_tx\.clk_cnt\[3\]
*644 uart_tx\.clk_cnt\[4\]
*645 uart_tx\.clk_cnt\[5\]
*646 uart_tx\.clk_cnt\[6\]
*647 uart_tx\.clk_cnt\[7\]
*648 uart_tx\.clk_cnt\[8\]
*649 uart_tx\.clk_cnt\[9\]
*650 uart_tx\.count\.next_cnt_out\[0\]
*651 uart_tx\.count\.next_cnt_out\[10\]
*652 uart_tx\.count\.next_cnt_out\[11\]
*653 uart_tx\.count\.next_cnt_out\[12\]
*654 uart_tx\.count\.next_cnt_out\[13\]
*655 uart_tx\.count\.next_cnt_out\[1\]
*656 uart_tx\.count\.next_cnt_out\[2\]
*657 uart_tx\.count\.next_cnt_out\[3\]
*658 uart_tx\.count\.next_cnt_out\[4\]
*659 uart_tx\.count\.next_cnt_out\[5\]
*660 uart_tx\.count\.next_cnt_out\[6\]
*661 uart_tx\.count\.next_cnt_out\[7\]
*662 uart_tx\.count\.next_cnt_out\[8\]
*663 uart_tx\.count\.next_cnt_out\[9\]
*664 uart_tx\.count\.next_roflag
*665 uart_tx\.count\.roflag_ff
*666 uart_tx\.tx_ctrl\.state\[0\]
*667 uart_tx\.tx_ctrl\.state\[1\]
*668 uart_tx\.tx_ctrl\.state\[2\]
*669 uart_tx\.tx_ctrl\.state\[3\]
*670 uart_tx\.tx_ctrl\.state\[4\]
*671 FILLER_0_109
*672 FILLER_0_113
*673 FILLER_0_125
*674 FILLER_0_137
*675 FILLER_0_141
*676 FILLER_0_15
*677 FILLER_0_153
*678 FILLER_0_165
*679 FILLER_0_169
*680 FILLER_0_181
*681 FILLER_0_193
*682 FILLER_0_197
*683 FILLER_0_209
*684 FILLER_0_221
*685 FILLER_0_225
*686 FILLER_0_237
*687 FILLER_0_249
*688 FILLER_0_253
*689 FILLER_0_27
*690 FILLER_0_29
*691 FILLER_0_3
*692 FILLER_0_41
*693 FILLER_0_53
*694 FILLER_0_57
*695 FILLER_0_69
*696 FILLER_0_81
*697 FILLER_0_85
*698 FILLER_0_97
*699 FILLER_10_109
*700 FILLER_10_121
*701 FILLER_10_127
*702 FILLER_10_139
*703 FILLER_10_141
*704 FILLER_10_164
*705 FILLER_10_176
*706 FILLER_10_194
*707 FILLER_10_197
*708 FILLER_10_209
*709 FILLER_10_221
*710 FILLER_10_233
*711 FILLER_10_245
*712 FILLER_10_251
*713 FILLER_10_253
*714 FILLER_10_3
*715 FILLER_10_36
*716 FILLER_10_44
*717 FILLER_10_71
*718 FILLER_10_83
*719 FILLER_10_85
*720 FILLER_10_97
*721 FILLER_11_106
*722 FILLER_11_11
*723 FILLER_11_113
*724 FILLER_11_121
*725 FILLER_11_127
*726 FILLER_11_133
*727 FILLER_11_138
*728 FILLER_11_150
*729 FILLER_11_162
*730 FILLER_11_169
*731 FILLER_11_182
*732 FILLER_11_194
*733 FILLER_11_206
*734 FILLER_11_213
*735 FILLER_11_221
*736 FILLER_11_225
*737 FILLER_11_237
*738 FILLER_11_249
*739 FILLER_11_257
*740 FILLER_11_3
*741 FILLER_11_41
*742 FILLER_11_47
*743 FILLER_11_52
*744 FILLER_11_57
*745 FILLER_11_63
*746 FILLER_12_120
*747 FILLER_12_137
*748 FILLER_12_141
*749 FILLER_12_149
*750 FILLER_12_15
*751 FILLER_12_193
*752 FILLER_12_226
*753 FILLER_12_238
*754 FILLER_12_250
*755 FILLER_12_253
*756 FILLER_12_3
*757 FILLER_12_39
*758 FILLER_12_57
*759 FILLER_12_79
*760 FILLER_12_83
*761 FILLER_12_94
*762 FILLER_12_98
*763 FILLER_13_122
*764 FILLER_13_134
*765 FILLER_13_15
*766 FILLER_13_164
*767 FILLER_13_199
*768 FILLER_13_207
*769 FILLER_13_221
*770 FILLER_13_230
*771 FILLER_13_242
*772 FILLER_13_254
*773 FILLER_13_258
*774 FILLER_13_3
*775 FILLER_13_53
*776 FILLER_13_69
*777 FILLER_13_84
*778 FILLER_13_90
*779 FILLER_14_110
*780 FILLER_14_122
*781 FILLER_14_149
*782 FILLER_14_160
*783 FILLER_14_193
*784 FILLER_14_205
*785 FILLER_14_237
*786 FILLER_14_249
*787 FILLER_14_253
*788 FILLER_14_26
*789 FILLER_14_3
*790 FILLER_14_42
*791 FILLER_14_59
*792 FILLER_14_63
*793 FILLER_14_85
*794 FILLER_14_91
*795 FILLER_15_101
*796 FILLER_15_109
*797 FILLER_15_113
*798 FILLER_15_125
*799 FILLER_15_146
*800 FILLER_15_15
*801 FILLER_15_154
*802 FILLER_15_163
*803 FILLER_15_167
*804 FILLER_15_169
*805 FILLER_15_173
*806 FILLER_15_183
*807 FILLER_15_195
*808 FILLER_15_207
*809 FILLER_15_223
*810 FILLER_15_225
*811 FILLER_15_229
*812 FILLER_15_235
*813 FILLER_15_24
*814 FILLER_15_247
*815 FILLER_15_3
*816 FILLER_15_48
*817 FILLER_15_57
*818 FILLER_15_65
*819 FILLER_15_89
*820 FILLER_16_107
*821 FILLER_16_119
*822 FILLER_16_125
*823 FILLER_16_141
*824 FILLER_16_194
*825 FILLER_16_197
*826 FILLER_16_216
*827 FILLER_16_233
*828 FILLER_16_245
*829 FILLER_16_251
*830 FILLER_16_253
*831 FILLER_16_26
*832 FILLER_16_39
*833 FILLER_16_85
*834 FILLER_16_93
*835 FILLER_17_109
*836 FILLER_17_113
*837 FILLER_17_130
*838 FILLER_17_134
*839 FILLER_17_142
*840 FILLER_17_154
*841 FILLER_17_166
*842 FILLER_17_169
*843 FILLER_17_17
*844 FILLER_17_181
*845 FILLER_17_201
*846 FILLER_17_212
*847 FILLER_17_225
*848 FILLER_17_232
*849 FILLER_17_244
*850 FILLER_17_256
*851 FILLER_17_66
*852 FILLER_17_81
*853 FILLER_17_87
*854 FILLER_18_106
*855 FILLER_18_116
*856 FILLER_18_131
*857 FILLER_18_138
*858 FILLER_18_141
*859 FILLER_18_170
*860 FILLER_18_174
*861 FILLER_18_197
*862 FILLER_18_208
*863 FILLER_18_253
*864 FILLER_18_26
*865 FILLER_18_50
*866 FILLER_18_62
*867 FILLER_18_74
*868 FILLER_18_82
*869 FILLER_19_108
*870 FILLER_19_113
*871 FILLER_19_122
*872 FILLER_19_134
*873 FILLER_19_146
*874 FILLER_19_15
*875 FILLER_19_205
*876 FILLER_19_213
*877 FILLER_19_23
*878 FILLER_19_255
*879 FILLER_19_3
*880 FILLER_19_34
*881 FILLER_19_49
*882 FILLER_19_55
*883 FILLER_19_78
*884 FILLER_19_86
*885 FILLER_19_96
*886 FILLER_1_105
*887 FILLER_1_111
*888 FILLER_1_113
*889 FILLER_1_125
*890 FILLER_1_137
*891 FILLER_1_149
*892 FILLER_1_15
*893 FILLER_1_161
*894 FILLER_1_167
*895 FILLER_1_169
*896 FILLER_1_181
*897 FILLER_1_193
*898 FILLER_1_205
*899 FILLER_1_217
*900 FILLER_1_223
*901 FILLER_1_225
*902 FILLER_1_237
*903 FILLER_1_249
*904 FILLER_1_257
*905 FILLER_1_27
*906 FILLER_1_3
*907 FILLER_1_39
*908 FILLER_1_51
*909 FILLER_1_55
*910 FILLER_1_57
*911 FILLER_1_69
*912 FILLER_1_81
*913 FILLER_1_93
*914 FILLER_20_106
*915 FILLER_20_112
*916 FILLER_20_120
*917 FILLER_20_132
*918 FILLER_20_146
*919 FILLER_20_15
*920 FILLER_20_154
*921 FILLER_20_163
*922 FILLER_20_178
*923 FILLER_20_192
*924 FILLER_20_197
*925 FILLER_20_209
*926 FILLER_20_215
*927 FILLER_20_251
*928 FILLER_20_253
*929 FILLER_20_27
*930 FILLER_20_29
*931 FILLER_20_3
*932 FILLER_20_83
*933 FILLER_20_94
*934 FILLER_21_106
*935 FILLER_21_113
*936 FILLER_21_130
*937 FILLER_21_134
*938 FILLER_21_139
*939 FILLER_21_151
*940 FILLER_21_163
*941 FILLER_21_167
*942 FILLER_21_169
*943 FILLER_21_175
*944 FILLER_21_179
*945 FILLER_21_188
*946 FILLER_21_200
*947 FILLER_21_212
*948 FILLER_21_225
*949 FILLER_21_240
*950 FILLER_21_252
*951 FILLER_21_258
*952 FILLER_21_30
*953 FILLER_21_53
*954 FILLER_21_6
*955 FILLER_21_75
*956 FILLER_22_109
*957 FILLER_22_137
*958 FILLER_22_146
*959 FILLER_22_159
*960 FILLER_22_171
*961 FILLER_22_175
*962 FILLER_22_185
*963 FILLER_22_193
*964 FILLER_22_197
*965 FILLER_22_209
*966 FILLER_22_219
*967 FILLER_22_223
*968 FILLER_22_232
*969 FILLER_22_24
*970 FILLER_22_243
*971 FILLER_22_251
*972 FILLER_22_253
*973 FILLER_22_29
*974 FILLER_22_76
*975 FILLER_22_85
*976 FILLER_23_11
*977 FILLER_23_111
*978 FILLER_23_113
*979 FILLER_23_167
*980 FILLER_23_169
*981 FILLER_23_193
*982 FILLER_23_220
*983 FILLER_23_225
*984 FILLER_23_231
*985 FILLER_23_238
*986 FILLER_23_3
*987 FILLER_23_44
*988 FILLER_23_66
*989 FILLER_24_119
*990 FILLER_24_127
*991 FILLER_24_139
*992 FILLER_24_160
*993 FILLER_24_188
*994 FILLER_24_197
*995 FILLER_24_204
*996 FILLER_24_235
*997 FILLER_24_27
*998 FILLER_24_38
*999 FILLER_24_69
*1000 FILLER_24_80
*1001 FILLER_25_106
*1002 FILLER_25_11
*1003 FILLER_25_113
*1004 FILLER_25_125
*1005 FILLER_25_133
*1006 FILLER_25_144
*1007 FILLER_25_154
*1008 FILLER_25_163
*1009 FILLER_25_167
*1010 FILLER_25_169
*1011 FILLER_25_181
*1012 FILLER_25_187
*1013 FILLER_25_208
*1014 FILLER_25_212
*1015 FILLER_25_219
*1016 FILLER_25_23
*1017 FILLER_25_233
*1018 FILLER_25_256
*1019 FILLER_25_3
*1020 FILLER_25_35
*1021 FILLER_25_66
*1022 FILLER_25_90
*1023 FILLER_25_96
*1024 FILLER_26_103
*1025 FILLER_26_115
*1026 FILLER_26_127
*1027 FILLER_26_139
*1028 FILLER_26_141
*1029 FILLER_26_153
*1030 FILLER_26_165
*1031 FILLER_26_177
*1032 FILLER_26_189
*1033 FILLER_26_195
*1034 FILLER_26_197
*1035 FILLER_26_209
*1036 FILLER_26_221
*1037 FILLER_26_233
*1038 FILLER_26_24
*1039 FILLER_26_245
*1040 FILLER_26_251
*1041 FILLER_26_253
*1042 FILLER_26_29
*1043 FILLER_26_41
*1044 FILLER_26_45
*1045 FILLER_26_67
*1046 FILLER_26_80
*1047 FILLER_26_91
*1048 FILLER_27_113
*1049 FILLER_27_125
*1050 FILLER_27_137
*1051 FILLER_27_149
*1052 FILLER_27_157
*1053 FILLER_27_163
*1054 FILLER_27_167
*1055 FILLER_27_169
*1056 FILLER_27_194
*1057 FILLER_27_206
*1058 FILLER_27_218
*1059 FILLER_27_225
*1060 FILLER_27_237
*1061 FILLER_27_249
*1062 FILLER_27_257
*1063 FILLER_27_3
*1064 FILLER_27_38
*1065 FILLER_27_50
*1066 FILLER_27_57
*1067 FILLER_27_69
*1068 FILLER_27_7
*1069 FILLER_27_81
*1070 FILLER_27_89
*1071 FILLER_28_141
*1072 FILLER_28_145
*1073 FILLER_28_166
*1074 FILLER_28_176
*1075 FILLER_28_217
*1076 FILLER_28_229
*1077 FILLER_28_24
*1078 FILLER_28_241
*1079 FILLER_28_249
*1080 FILLER_28_253
*1081 FILLER_28_37
*1082 FILLER_28_49
*1083 FILLER_28_61
*1084 FILLER_28_73
*1085 FILLER_28_81
*1086 FILLER_28_85
*1087 FILLER_28_97
*1088 FILLER_29_102
*1089 FILLER_29_106
*1090 FILLER_29_113
*1091 FILLER_29_122
*1092 FILLER_29_140
*1093 FILLER_29_144
*1094 FILLER_29_15
*1095 FILLER_29_165
*1096 FILLER_29_202
*1097 FILLER_29_22
*1098 FILLER_29_232
*1099 FILLER_29_244
*1100 FILLER_29_256
*1101 FILLER_29_3
*1102 FILLER_29_54
*1103 FILLER_29_57
*1104 FILLER_29_65
*1105 FILLER_29_78
*1106 FILLER_2_109
*1107 FILLER_2_121
*1108 FILLER_2_133
*1109 FILLER_2_139
*1110 FILLER_2_144
*1111 FILLER_2_15
*1112 FILLER_2_151
*1113 FILLER_2_163
*1114 FILLER_2_175
*1115 FILLER_2_187
*1116 FILLER_2_195
*1117 FILLER_2_197
*1118 FILLER_2_209
*1119 FILLER_2_221
*1120 FILLER_2_233
*1121 FILLER_2_245
*1122 FILLER_2_251
*1123 FILLER_2_253
*1124 FILLER_2_27
*1125 FILLER_2_29
*1126 FILLER_2_3
*1127 FILLER_2_41
*1128 FILLER_2_53
*1129 FILLER_2_65
*1130 FILLER_2_77
*1131 FILLER_2_83
*1132 FILLER_2_85
*1133 FILLER_2_97
*1134 FILLER_30_107
*1135 FILLER_30_115
*1136 FILLER_30_136
*1137 FILLER_30_141
*1138 FILLER_30_149
*1139 FILLER_30_15
*1140 FILLER_30_175
*1141 FILLER_30_183
*1142 FILLER_30_19
*1143 FILLER_30_203
*1144 FILLER_30_225
*1145 FILLER_30_247
*1146 FILLER_30_251
*1147 FILLER_30_253
*1148 FILLER_30_29
*1149 FILLER_30_3
*1150 FILLER_30_51
*1151 FILLER_30_83
*1152 FILLER_30_95
*1153 FILLER_31_100
*1154 FILLER_31_11
*1155 FILLER_31_113
*1156 FILLER_31_129
*1157 FILLER_31_141
*1158 FILLER_31_153
*1159 FILLER_31_157
*1160 FILLER_31_167
*1161 FILLER_31_169
*1162 FILLER_31_181
*1163 FILLER_31_193
*1164 FILLER_31_199
*1165 FILLER_31_205
*1166 FILLER_31_211
*1167 FILLER_31_218
*1168 FILLER_31_232
*1169 FILLER_31_244
*1170 FILLER_31_256
*1171 FILLER_31_3
*1172 FILLER_31_52
*1173 FILLER_31_57
*1174 FILLER_31_72
*1175 FILLER_32_111
*1176 FILLER_32_115
*1177 FILLER_32_141
*1178 FILLER_32_153
*1179 FILLER_32_161
*1180 FILLER_32_168
*1181 FILLER_32_180
*1182 FILLER_32_192
*1183 FILLER_32_205
*1184 FILLER_32_212
*1185 FILLER_32_224
*1186 FILLER_32_236
*1187 FILLER_32_248
*1188 FILLER_32_253
*1189 FILLER_32_50
*1190 FILLER_32_56
*1191 FILLER_32_90
*1192 FILLER_32_99
*1193 FILLER_33_102
*1194 FILLER_33_11
*1195 FILLER_33_110
*1196 FILLER_33_113
*1197 FILLER_33_140
*1198 FILLER_33_152
*1199 FILLER_33_180
*1200 FILLER_33_189
*1201 FILLER_33_194
*1202 FILLER_33_198
*1203 FILLER_33_206
*1204 FILLER_33_210
*1205 FILLER_33_220
*1206 FILLER_33_225
*1207 FILLER_33_235
*1208 FILLER_33_258
*1209 FILLER_33_3
*1210 FILLER_33_54
*1211 FILLER_33_57
*1212 FILLER_33_65
*1213 FILLER_33_84
*1214 FILLER_33_92
*1215 FILLER_34_111
*1216 FILLER_34_123
*1217 FILLER_34_129
*1218 FILLER_34_137
*1219 FILLER_34_141
*1220 FILLER_34_178
*1221 FILLER_34_187
*1222 FILLER_34_210
*1223 FILLER_34_231
*1224 FILLER_34_246
*1225 FILLER_34_253
*1226 FILLER_34_39
*1227 FILLER_34_62
*1228 FILLER_34_74
*1229 FILLER_34_85
*1230 FILLER_34_89
*1231 FILLER_35_108
*1232 FILLER_35_130
*1233 FILLER_35_138
*1234 FILLER_35_15
*1235 FILLER_35_150
*1236 FILLER_35_165
*1237 FILLER_35_178
*1238 FILLER_35_182
*1239 FILLER_35_192
*1240 FILLER_35_200
*1241 FILLER_35_210
*1242 FILLER_35_232
*1243 FILLER_35_254
*1244 FILLER_35_258
*1245 FILLER_35_27
*1246 FILLER_35_3
*1247 FILLER_35_33
*1248 FILLER_35_44
*1249 FILLER_35_57
*1250 FILLER_35_68
*1251 FILLER_35_84
*1252 FILLER_35_96
*1253 FILLER_36_106
*1254 FILLER_36_133
*1255 FILLER_36_139
*1256 FILLER_36_141
*1257 FILLER_36_149
*1258 FILLER_36_15
*1259 FILLER_36_189
*1260 FILLER_36_195
*1261 FILLER_36_203
*1262 FILLER_36_223
*1263 FILLER_36_240
*1264 FILLER_36_253
*1265 FILLER_36_27
*1266 FILLER_36_29
*1267 FILLER_36_3
*1268 FILLER_36_41
*1269 FILLER_36_62
*1270 FILLER_36_70
*1271 FILLER_36_79
*1272 FILLER_36_83
*1273 FILLER_36_85
*1274 FILLER_36_94
*1275 FILLER_37_102
*1276 FILLER_37_110
*1277 FILLER_37_113
*1278 FILLER_37_117
*1279 FILLER_37_125
*1280 FILLER_37_147
*1281 FILLER_37_155
*1282 FILLER_37_159
*1283 FILLER_37_167
*1284 FILLER_37_169
*1285 FILLER_37_178
*1286 FILLER_37_190
*1287 FILLER_37_202
*1288 FILLER_37_214
*1289 FILLER_37_222
*1290 FILLER_37_235
*1291 FILLER_37_247
*1292 FILLER_37_28
*1293 FILLER_37_3
*1294 FILLER_37_40
*1295 FILLER_37_52
*1296 FILLER_37_7
*1297 FILLER_37_77
*1298 FILLER_37_81
*1299 FILLER_38_102
*1300 FILLER_38_109
*1301 FILLER_38_116
*1302 FILLER_38_128
*1303 FILLER_38_134
*1304 FILLER_38_164
*1305 FILLER_38_188
*1306 FILLER_38_197
*1307 FILLER_38_209
*1308 FILLER_38_221
*1309 FILLER_38_233
*1310 FILLER_38_245
*1311 FILLER_38_251
*1312 FILLER_38_253
*1313 FILLER_38_26
*1314 FILLER_38_40
*1315 FILLER_38_52
*1316 FILLER_38_64
*1317 FILLER_38_75
*1318 FILLER_38_85
*1319 FILLER_38_92
*1320 FILLER_39_103
*1321 FILLER_39_131
*1322 FILLER_39_143
*1323 FILLER_39_155
*1324 FILLER_39_167
*1325 FILLER_39_175
*1326 FILLER_39_181
*1327 FILLER_39_188
*1328 FILLER_39_211
*1329 FILLER_39_220
*1330 FILLER_39_23
*1331 FILLER_39_239
*1332 FILLER_39_251
*1333 FILLER_39_3
*1334 FILLER_39_53
*1335 FILLER_39_57
*1336 FILLER_39_75
*1337 FILLER_39_85
*1338 FILLER_39_97
*1339 FILLER_3_105
*1340 FILLER_3_111
*1341 FILLER_3_113
*1342 FILLER_3_125
*1343 FILLER_3_146
*1344 FILLER_3_15
*1345 FILLER_3_165
*1346 FILLER_3_169
*1347 FILLER_3_181
*1348 FILLER_3_193
*1349 FILLER_3_205
*1350 FILLER_3_217
*1351 FILLER_3_223
*1352 FILLER_3_225
*1353 FILLER_3_237
*1354 FILLER_3_249
*1355 FILLER_3_257
*1356 FILLER_3_27
*1357 FILLER_3_3
*1358 FILLER_3_39
*1359 FILLER_3_51
*1360 FILLER_3_55
*1361 FILLER_3_57
*1362 FILLER_3_69
*1363 FILLER_3_81
*1364 FILLER_3_93
*1365 FILLER_40_113
*1366 FILLER_40_121
*1367 FILLER_40_137
*1368 FILLER_40_141
*1369 FILLER_40_153
*1370 FILLER_40_183
*1371 FILLER_40_187
*1372 FILLER_40_242
*1373 FILLER_40_250
*1374 FILLER_40_253
*1375 FILLER_40_3
*1376 FILLER_40_64
*1377 FILLER_40_82
*1378 FILLER_40_85
*1379 FILLER_40_97
*1380 FILLER_41_110
*1381 FILLER_41_113
*1382 FILLER_41_121
*1383 FILLER_41_154
*1384 FILLER_41_167
*1385 FILLER_41_187
*1386 FILLER_41_195
*1387 FILLER_41_199
*1388 FILLER_41_220
*1389 FILLER_41_235
*1390 FILLER_41_247
*1391 FILLER_41_3
*1392 FILLER_41_32
*1393 FILLER_41_53
*1394 FILLER_41_57
*1395 FILLER_41_98
*1396 FILLER_42_105
*1397 FILLER_42_109
*1398 FILLER_42_137
*1399 FILLER_42_141
*1400 FILLER_42_153
*1401 FILLER_42_177
*1402 FILLER_42_189
*1403 FILLER_42_195
*1404 FILLER_42_217
*1405 FILLER_42_229
*1406 FILLER_42_241
*1407 FILLER_42_249
*1408 FILLER_42_253
*1409 FILLER_42_27
*1410 FILLER_42_3
*1411 FILLER_42_43
*1412 FILLER_42_55
*1413 FILLER_42_67
*1414 FILLER_42_81
*1415 FILLER_43_105
*1416 FILLER_43_111
*1417 FILLER_43_113
*1418 FILLER_43_118
*1419 FILLER_43_126
*1420 FILLER_43_132
*1421 FILLER_43_141
*1422 FILLER_43_147
*1423 FILLER_43_15
*1424 FILLER_43_154
*1425 FILLER_43_160
*1426 FILLER_43_167
*1427 FILLER_43_169
*1428 FILLER_43_177
*1429 FILLER_43_182
*1430 FILLER_43_189
*1431 FILLER_43_195
*1432 FILLER_43_197
*1433 FILLER_43_209
*1434 FILLER_43_221
*1435 FILLER_43_225
*1436 FILLER_43_237
*1437 FILLER_43_249
*1438 FILLER_43_253
*1439 FILLER_43_27
*1440 FILLER_43_3
*1441 FILLER_43_35
*1442 FILLER_43_47
*1443 FILLER_43_55
*1444 FILLER_43_57
*1445 FILLER_43_69
*1446 FILLER_43_81
*1447 FILLER_43_85
*1448 FILLER_43_91
*1449 FILLER_43_98
*1450 FILLER_4_109
*1451 FILLER_4_121
*1452 FILLER_4_125
*1453 FILLER_4_133
*1454 FILLER_4_139
*1455 FILLER_4_141
*1456 FILLER_4_15
*1457 FILLER_4_153
*1458 FILLER_4_165
*1459 FILLER_4_177
*1460 FILLER_4_189
*1461 FILLER_4_195
*1462 FILLER_4_197
*1463 FILLER_4_209
*1464 FILLER_4_221
*1465 FILLER_4_233
*1466 FILLER_4_245
*1467 FILLER_4_251
*1468 FILLER_4_253
*1469 FILLER_4_27
*1470 FILLER_4_29
*1471 FILLER_4_3
*1472 FILLER_4_41
*1473 FILLER_4_53
*1474 FILLER_4_65
*1475 FILLER_4_77
*1476 FILLER_4_83
*1477 FILLER_4_85
*1478 FILLER_4_97
*1479 FILLER_5_107
*1480 FILLER_5_111
*1481 FILLER_5_120
*1482 FILLER_5_144
*1483 FILLER_5_15
*1484 FILLER_5_156
*1485 FILLER_5_163
*1486 FILLER_5_167
*1487 FILLER_5_169
*1488 FILLER_5_181
*1489 FILLER_5_193
*1490 FILLER_5_201
*1491 FILLER_5_207
*1492 FILLER_5_219
*1493 FILLER_5_223
*1494 FILLER_5_225
*1495 FILLER_5_237
*1496 FILLER_5_249
*1497 FILLER_5_257
*1498 FILLER_5_27
*1499 FILLER_5_3
*1500 FILLER_5_48
*1501 FILLER_5_63
*1502 FILLER_5_71
*1503 FILLER_5_95
*1504 FILLER_6_126
*1505 FILLER_6_133
*1506 FILLER_6_139
*1507 FILLER_6_141
*1508 FILLER_6_145
*1509 FILLER_6_153
*1510 FILLER_6_173
*1511 FILLER_6_180
*1512 FILLER_6_186
*1513 FILLER_6_218
*1514 FILLER_6_230
*1515 FILLER_6_24
*1516 FILLER_6_242
*1517 FILLER_6_250
*1518 FILLER_6_253
*1519 FILLER_6_29
*1520 FILLER_6_3
*1521 FILLER_6_41
*1522 FILLER_6_85
*1523 FILLER_6_97
*1524 FILLER_7_106
*1525 FILLER_7_116
*1526 FILLER_7_122
*1527 FILLER_7_138
*1528 FILLER_7_145
*1529 FILLER_7_154
*1530 FILLER_7_225
*1531 FILLER_7_237
*1532 FILLER_7_249
*1533 FILLER_7_257
*1534 FILLER_7_32
*1535 FILLER_7_44
*1536 FILLER_7_66
*1537 FILLER_7_93
*1538 FILLER_7_99
*1539 FILLER_8_109
*1540 FILLER_8_131
*1541 FILLER_8_139
*1542 FILLER_8_141
*1543 FILLER_8_153
*1544 FILLER_8_157
*1545 FILLER_8_167
*1546 FILLER_8_186
*1547 FILLER_8_218
*1548 FILLER_8_230
*1549 FILLER_8_242
*1550 FILLER_8_250
*1551 FILLER_8_253
*1552 FILLER_8_29
*1553 FILLER_8_3
*1554 FILLER_8_40
*1555 FILLER_8_56
*1556 FILLER_8_64
*1557 FILLER_8_85
*1558 FILLER_9_107
*1559 FILLER_9_111
*1560 FILLER_9_113
*1561 FILLER_9_127
*1562 FILLER_9_136
*1563 FILLER_9_142
*1564 FILLER_9_15
*1565 FILLER_9_151
*1566 FILLER_9_163
*1567 FILLER_9_167
*1568 FILLER_9_169
*1569 FILLER_9_179
*1570 FILLER_9_203
*1571 FILLER_9_215
*1572 FILLER_9_223
*1573 FILLER_9_225
*1574 FILLER_9_237
*1575 FILLER_9_24
*1576 FILLER_9_249
*1577 FILLER_9_257
*1578 FILLER_9_3
*1579 FILLER_9_46
*1580 FILLER_9_54
*1581 FILLER_9_57
*1582 FILLER_9_64
*1583 FILLER_9_76
*1584 FILLER_9_80
*1585 FILLER_9_90
*1586 PHY_EDGE_ROW_0_Left_44
*1587 PHY_EDGE_ROW_0_Right_0
*1588 PHY_EDGE_ROW_10_Left_54
*1589 PHY_EDGE_ROW_10_Right_10
*1590 PHY_EDGE_ROW_11_Left_55
*1591 PHY_EDGE_ROW_11_Right_11
*1592 PHY_EDGE_ROW_12_Left_56
*1593 PHY_EDGE_ROW_12_Right_12
*1594 PHY_EDGE_ROW_13_Left_57
*1595 PHY_EDGE_ROW_13_Right_13
*1596 PHY_EDGE_ROW_14_Left_58
*1597 PHY_EDGE_ROW_14_Right_14
*1598 PHY_EDGE_ROW_15_Left_59
*1599 PHY_EDGE_ROW_15_Right_15
*1600 PHY_EDGE_ROW_16_Left_60
*1601 PHY_EDGE_ROW_16_Right_16
*1602 PHY_EDGE_ROW_17_Left_61
*1603 PHY_EDGE_ROW_17_Right_17
*1604 PHY_EDGE_ROW_18_Left_62
*1605 PHY_EDGE_ROW_18_Right_18
*1606 PHY_EDGE_ROW_19_Left_63
*1607 PHY_EDGE_ROW_19_Right_19
*1608 PHY_EDGE_ROW_1_Left_45
*1609 PHY_EDGE_ROW_1_Right_1
*1610 PHY_EDGE_ROW_20_Left_64
*1611 PHY_EDGE_ROW_20_Right_20
*1612 PHY_EDGE_ROW_21_Left_65
*1613 PHY_EDGE_ROW_21_Right_21
*1614 PHY_EDGE_ROW_22_Left_66