*SPEF "ieee 1481-1999"
*DESIGN "outel8227"
*DATE "15:15:21 Saturday January 18, 2025"
*VENDOR "The OpenROAD Project"
*PROGRAM "OpenROAD"
*VERSION "edf00dff99f6c40d67a30c0e22a8191c5d2ed9d6"
*DESIGN_FLOW "NAME_SCOPE LOCAL" "PIN_CAP NONE"
*DIVIDER /
*DELIMITER :
*BUS_DELIMITER []
*T_UNIT 1 NS
*C_UNIT 1 PF
*R_UNIT 1 OHM
*L_UNIT 1 HENRY

*NAME_MAP
*3 clk
*4 cs
*5 dataBusIn[0]
*6 dataBusIn[1]
*7 dataBusIn[2]
*8 dataBusIn[3]
*9 dataBusIn[4]
*10 dataBusIn[5]
*11 dataBusIn[6]
*12 dataBusIn[7]
*13 dataBusOut[0]
*14 dataBusOut[1]
*15 dataBusOut[2]
*16 dataBusOut[3]
*17 dataBusOut[4]
*18 dataBusOut[5]
*19 dataBusOut[6]
*20 dataBusOut[7]
*21 dataBusSelect
*22 gpio[0]
*23 gpio[10]
*24 gpio[11]
*25 gpio[12]
*26 gpio[13]
*27 gpio[14]
*28 gpio[15]
*29 gpio[16]
*30 gpio[17]
*31 gpio[18]
*32 gpio[19]
*33 gpio[1]
*34 gpio[20]
*35 gpio[21]
*36 gpio[22]
*37 gpio[23]
*38 gpio[24]
*39 gpio[25]
*40 gpio[2]
*41 gpio[3]
*42 gpio[4]
*43 gpio[5]
*44 gpio[6]
*45 gpio[7]
*46 gpio[8]
*47 gpio[9]
*48 nrst
*49 _0000_
*50 _0001_
*51 _0002_
*52 _0003_
*53 _0004_
*54 _0005_
*55 _0006_
*56 _0007_
*57 _0008_
*58 _0009_
*59 _0010_
*60 _0011_
*61 _0012_
*62 _0013_
*63 _0014_
*64 _0015_
*65 _0016_
*66 _0017_
*67 _0018_
*68 _0019_
*69 _0020_
*70 _0021_
*71 _0022_
*72 _0023_
*73 _0024_
*74 _0025_
*75 _0026_
*76 _0027_
*77 _0028_
*78 _0029_
*79 _0030_
*80 _0031_
*81 _0032_
*82 _0033_
*83 _0034_
*84 _0035_
*85 _0036_
*86 _0037_
*87 _0038_
*88 _0039_
*89 _0040_
*90 _0041_
*91 _0042_
*92 _0043_
*93 _0044_
*94 _0045_
*95 _0046_
*96 _0047_
*97 _0048_
*98 _0049_
*99 _0050_
*100 _0051_
*101 _0052_
*102 _0053_
*103 _0054_
*104 _0055_
*105 _0056_
*106 _0057_
*107 _0058_
*108 _0059_
*109 _0060_
*110 _0061_
*111 _0062_
*112 _0063_
*113 _0064_
*114 _0065_
*115 _0066_
*116 _0067_
*117 _0068_
*118 _0069_
*119 _0070_
*120 _0071_
*121 _0072_
*122 _0073_
*123 _0074_
*124 _0075_
*125 _0076_
*126 _0077_
*127 _0078_
*128 _0079_
*129 _0080_
*130 _0081_
*131 _0082_
*132 _0083_
*133 _0084_
*134 _0085_
*135 _0086_
*136 _0087_
*137 _0088_
*138 _0089_
*139 _0090_
*140 _0091_
*141 _0092_
*142 _0093_
*143 _0094_
*144 _0095_
*145 _0096_
*146 _0097_
*147 _0098_
*148 _0099_
*149 _0100_
*150 _0101_
*151 _0102_
*152 _0103_
*153 _0104_
*154 _0105_
*155 _0106_
*156 _0107_
*157 _0108_
*158 _0109_
*159 _0110_
*160 _0111_
*161 _0112_
*162 _0113_
*163 _0114_
*164 _0115_
*165 _0116_
*166 _0117_
*167 _0118_
*168 _0119_
*169 _0120_
*170 _0121_
*171 _0122_
*172 _0123_
*173 _0124_
*174 _0125_
*175 _0126_
*176 _0127_
*177 _0128_
*178 _0129_
*179 _0130_
*180 _0131_
*181 _0132_
*182 _0133_
*183 _0134_
*184 _0135_
*185 _0136_
*186 _0137_
*187 _0138_
*188 _0139_
*189 _0140_
*190 _0141_
*191 _0142_
*192 _0143_
*193 _0144_
*194 _0145_
*195 _0146_
*196 _0147_
*197 _0148_
*198 _0149_
*199 _0150_
*200 _0151_
*201 _0152_
*202 _0153_
*203 _0154_
*204 _0155_
*205 _0156_
*206 _0157_
*207 _0158_
*208 _0159_
*209 _0160_
*210 _0161_
*211 _0162_
*212 _0163_
*213 _0164_
*214 _0165_
*215 _0166_
*216 _0167_
*217 _0168_
*218 _0169_
*219 _0170_
*220 _0171_
*221 _0172_
*222 _0173_
*223 _0174_
*224 _0175_
*225 _0176_
*226 _0177_
*227 _0178_
*228 _0179_
*229 _0180_
*230 _0181_
*231 _0182_
*232 _0183_
*233 _0184_
*234 _0185_
*235 _0186_
*236 _0187_
*237 _0188_
*238 _0189_
*239 _0190_
*240 _0191_
*241 _0192_
*242 _0193_
*243 _0194_
*244 _0195_
*245 _0196_
*246 _0197_
*247 _0198_
*248 _0199_
*249 _0200_
*250 _0201_
*251 _0202_
*252 _0203_
*253 _0204_
*254 _0205_
*255 _0206_
*256 _0207_
*257 _0208_
*258 _0209_
*259 _0210_
*260 _0211_
*261 _0212_
*262 _0213_
*263 _0214_
*264 _0215_
*265 _0216_
*266 _0217_
*267 _0218_
*268 _0219_
*269 _0220_
*270 _0221_
*271 _0222_
*272 _0223_
*273 _0224_
*274 _0225_
*275 _0226_
*276 _0227_
*277 _0228_
*278 _0229_
*279 _0230_
*280 _0231_
*281 _0232_
*282 _0233_
*283 _0234_
*284 _0235_
*285 _0236_
*286 _0237_
*287 _0238_
*288 _0239_
*289 _0240_
*290 _0241_
*291 _0242_
*292 _0243_
*293 _0244_
*294 _0245_
*295 _0246_
*296 _0247_
*297 _0248_
*298 _0249_
*299 _0250_
*300 _0251_
*301 _0252_
*302 _0253_
*303 _0254_
*304 _0255_
*305 _0256_
*306 _0257_
*307 _0258_
*308 _0259_
*309 _0260_
*310 _0261_
*311 _0262_
*312 _0263_
*313 _0264_
*314 _0265_
*315 _0266_
*316 _0267_
*317 _0268_
*318 _0269_
*319 _0270_
*320 _0271_
*321 _0272_
*322 _0273_
*323 _0274_
*324 _0275_
*325 _0276_
*326 _0277_
*327 _0278_
*328 _0279_
*329 _0280_
*330 _0281_
*331 _0282_
*332 _0283_
*333 _0284_
*334 _0285_
*335 _0286_
*336 _0287_
*337 _0288_
*338 _0289_
*339 _0290_
*340 _0291_
*341 _0292_
*342 _0293_
*343 _0294_
*344 _0295_
*345 _0296_
*346 _0297_
*347 _0298_
*348 _0299_
*349 _0300_
*350 _0301_
*351 _0302_
*352 _0303_
*353 _0304_
*354 _0305_
*355 _0306_
*356 _0307_
*357 _0308_
*358 _0309_
*359 _0310_
*360 _0311_
*361 _0312_
*362 _0313_
*363 _0314_
*364 _0315_
*365 _0316_
*366 _0317_
*367 _0318_
*368 _0319_
*369 _0320_
*370 _0321_
*371 _0322_
*372 _0323_
*373 _0324_
*374 _0325_
*375 _0326_
*376 _0327_
*377 _0328_
*378 _0329_
*379 _0330_
*380 _0331_
*381 _0332_
*382 _0333_
*383 _0334_
*384 _0335_
*385 _0336_
*386 _0337_
*387 _0338_
*388 _0339_
*389 _0340_
*390 _0341_
*391 _0342_
*392 _0343_
*393 _0344_
*394 _0345_
*395 _0346_
*396 _0347_
*397 _0348_
*398 _0349_
*399 _0350_
*400 _0351_
*401 _0352_
*402 _0353_
*403 _0354_
*404 _0355_
*405 _0356_
*406 _0357_
*407 _0358_
*408 _0359_
*409 _0360_
*410 _0361_
*411 _0362_
*412 _0363_
*413 _0364_
*414 _0365_
*415 _0366_
*416 _0367_
*417 _0368_
*418 _0369_
*419 _0370_
*420 _0371_
*421 _0372_
*422 _0373_
*423 _0374_
*424 _0375_
*425 _0376_
*426 _0377_
*427 _0378_
*428 _0379_
*429 _0380_
*430 _0381_
*431 _0382_
*432 _0383_
*433 _0384_
*434 _0385_
*435 _0386_
*436 _0387_
*437 _0388_
*438 _0389_
*439 _0390_
*440 _0391_
*441 _0392_
*442 _0393_
*443 _0394_
*444 _0395_
*445 _0396_
*446 _0397_
*447 _0398_
*448 _0399_
*449 _0400_
*450 _0401_
*451 _0402_
*452 _0403_
*453 _0404_
*454 _0405_
*455 _0406_
*456 _0407_
*457 _0408_
*458 _0409_
*459 _0410_
*460 _0411_
*461 _0412_
*462 _0413_
*463 _0414_
*464 _0415_
*465 _0416_
*466 _0417_
*467 _0418_
*468 _0419_
*469 _0420_
*470 _0421_
*471 _0422_
*472 _0423_
*473 _0424_
*474 _0425_
*475 _0426_
*476 _0427_
*477 _0428_
*478 _0429_
*479 _0430_
*480 _0431_
*481 _0432_
*482 _0433_
*483 _0434_
*484 _0435_
*485 _0436_
*486 _0437_
*487 _0438_
*488 _0439_
*489 _0440_
*490 _0441_
*491 _0442_
*492 _0443_
*493 _0444_
*494 _0445_
*495 _0446_
*496 _0447_
*497 _0448_
*498 _0449_
*499 _0450_
*500 _0451_
*501 _0452_
*502 _0453_
*503 _0454_
*504 _0455_
*505 _0456_
*506 _0457_
*507 _0458_
*508 _0459_
*509 _0460_
*510 _0461_
*511 _0462_
*512 _0463_
*513 _0464_
*514 _0465_
*515 _0466_
*516 _0467_
*517 _0468_
*518 _0469_
*519 _0470_
*520 _0471_
*521 _0472_
*522 _0473_
*523 _0474_
*524 _0475_
*525 _0476_
*526 _0477_
*527 _0478_
*528 _0479_
*529 _0480_
*530 _0481_
*531 _0482_
*532 _0483_
*533 _0484_
*534 _0485_
*535 _0486_
*536 _0487_
*537 _0488_
*538 _0489_
*539 _0490_
*540 _0491_
*541 _0492_
*542 _0493_
*543 _0494_
*544 _0495_
*545 _0496_
*546 _0497_
*547 _0498_
*548 _0499_
*549 _0500_
*550 _0501_
*551 _0502_
*552 _0503_
*553 _0504_
*554 _0505_
*555 _0506_
*556 _0507_
*557 _0508_
*558 _0509_
*559 _0510_
*560 _0511_
*561 _0512_
*562 _0513_
*563 _0514_
*564 _0515_
*565 _0516_
*566 _0517_
*567 _0518_
*568 _0519_
*569 _0520_
*570 _0521_
*571 _0522_
*572 _0523_
*573 _0524_
*574 _0525_
*575 _0526_
*576 _0527_
*577 _0528_
*578 _0529_
*579 _0530_
*580 _0531_
*581 _0532_
*582 _0533_
*583 _0534_
*584 _0535_
*585 _0536_
*586 _0537_
*587 _0538_
*588 _0539_
*589 _0540_
*590 _0541_
*591 _0542_
*592 _0543_
*593 _0544_
*594 _0545_
*595 _0546_
*596 _0547_
*597 _0548_
*598 _0549_
*599 _0550_
*600 _0551_
*601 _0552_
*602 _0553_
*603 _0554_
*604 _0555_
*605 _0556_
*606 _0557_
*607 _0558_
*608 _0559_
*609 _0560_
*610 _0561_
*611 _0562_
*612 _0563_
*613 _0564_
*614 _0565_
*615 _0566_
*616 _0567_
*617 _0568_
*618 _0569_
*619 _0570_
*620 _0571_
*621 _0572_
*622 _0573_
*623 _0574_
*624 _0575_
*625 _0576_
*626 _0577_
*627 _0578_
*628 _0579_
*629 _0580_
*630 _0581_
*631 _0582_
*632 _0583_
*633 _0584_
*634 _0585_
*635 _0586_
*636 _0587_
*637 _0588_
*638 _0589_
*639 _0590_
*640 _0591_
*641 _0592_
*642 _0593_
*643 _0594_
*644 _0595_
*645 _0596_
*646 _0597_
*647 _0598_
*648 _0599_
*649 _0600_
*650 _0601_
*651 _0602_
*652 _0603_
*653 _0604_
*654 _0605_
*655 _0606_
*656 _0607_
*657 _0608_
*658 _0609_
*659 _0610_
*660 _0611_
*661 _0612_
*662 _0613_
*663 _0614_
*664 _0615_
*665 _0616_
*666 _0617_
*667 _0618_
*668 _0619_
*669 _0620_
*670 _0621_
*671 _0622_
*672 _0623_
*673 _0624_
*674 _0625_
*675 _0626_
*676 _0627_
*677 _0628_
*678 _0629_
*679 _0630_
*680 _0631_
*681 _0632_
*682 _0633_
*683 _0634_
*684 _0635_
*685 _0636_
*686 _0637_
*687 _0638_
*688 _0639_
*689 _0640_
*690 _0641_
*691 _0642_
*692 _0643_
*693 _0644_
*694 _0645_
*695 _0646_
*696 _0647_
*697 _0648_
*698 _0649_
*699 _0650_
*700 _0651_
*701 _0652_
*702 _0653_
*703 _0654_
*704 _0655_
*705 _0656_
*706 _0657_
*707 _0658_
*708 _0659_
*709 _0660_
*710 _0661_
*711 _0662_
*712 _0663_
*713 _0664_
*714 _0665_
*715 _0666_
*716 _0667_
*717 _0668_
*718 _0669_
*719 _0670_
*720 _0671_
*721 _0672_
*722 _0673_
*723 _0674_
*724 _0675_
*725 _0676_
*726 _0677_
*727 _0678_
*728 _0679_
*729 _0680_
*730 _0681_
*731 _0682_
*732 _0683_
*733 _0684_
*734 _0685_
*735 _0686_
*736 _0687_
*737 _0688_
*738 _0689_
*739 _0690_
*740 _0691_
*741 _0692_
*742 _0693_
*743 _0694_
*744 _0695_
*745 _0696_
*746 _0697_
*747 _0698_
*748 _0699_
*749 _0700_
*750 _0701_
*751 _0702_
*752 _0703_
*753 _0704_
*754 _0705_
*755 _0706_
*756 _0707_
*757 _0708_
*758 _0709_
*759 _0710_
*760 _0711_
*761 _0712_
*762 _0713_
*763 _0714_
*764 _0715_
*765 _0716_
*766 _0717_
*767 _0718_
*768 _0719_
*769 _0720_
*770 _0721_
*771 _0722_
*772 _0723_
*773 _0724_
*774 _0725_
*775 _0726_
*776 _0727_
*777 _0728_
*778 _0729_
*779 _0730_
*780 _0731_
*781 _0732_
*782 _0733_
*783 _0734_
*784 _0735_
*785 _0736_
*786 _0737_
*787 _0738_
*788 _0739_
*789 _0740_
*790 _0741_
*791 _0742_
*792 _0743_
*793 _0744_
*794 _0745_
*795 _0746_
*796 _0747_
*797 _0748_
*798 _0749_
*799 _0750_
*800 _0751_
*801 _0752_
*802 _0753_
*803 _0754_
*804 _0755_
*805 _0756_
*806 _0757_
*807 _0758_
*808 _0759_
*809 _0760_
*810 _0761_
*811 _0762_
*812 _0763_
*813 _0764_
*814 _0765_
*815 _0766_
*816 _0767_
*817 _0768_
*818 _0769_
*819 _0770_
*820 _0771_
*821 _0772_
*822 _0773_
*823 _0774_
*824 _0775_
*825 _0776_
*826 _0777_
*827 _0778_
*828 _0779_
*829 _0780_
*830 _0781_
*831 _0782_
*832 _0783_
*833 _0784_
*834 _0785_
*835 _0786_
*836 _0787_
*837 _0788_
*838 _0789_
*839 _0790_
*840 _0791_
*841 _0792_
*842 _0793_
*843 _0794_
*844 _0795_
*845 _0796_
*846 _0797_
*847 _0798_
*848 _0799_
*849 _0800_
*850 _0801_
*851 _0802_
*852 _0803_
*853 _0804_
*854 _0805_
*855 _0806_
*856 _0807_
*857 _0808_
*858 _0809_
*859 _0810_
*860 _0811_
*861 _0812_
*862 _0813_
*863 _0814_
*864 _0815_
*865 _0816_
*866 _0817_
*867 _0818_
*868 _0819_
*869 _0820_
*870 _0821_
*871 _0822_
*872 _0823_
*873 _0824_
*874 _0825_
*875 _0826_
*876 _0827_
*877 _0828_
*878 _0829_
*879 _0830_
*880 _0831_
*881 _0832_
*882 _0833_
*883 _0834_
*884 _0835_
*885 _0836_
*886 _0837_
*887 _0838_
*888 _0839_
*889 _0840_
*890 _0841_
*891 _0842_
*892 _0843_
*893 _0844_
*894 _0845_
*895 _0846_
*896 _0847_
*897 _0848_
*898 _0849_
*899 _0850_
*900 _0851_
*901 _0852_
*902 _0853_
*903 _0854_
*904 _0855_
*905 _0856_
*906 _0857_
*907 _0858_
*908 _0859_
*909 _0860_
*910 _0861_
*911 _0862_
*912 _0863_
*913 _0864_
*914 _0865_
*915 _0866_
*916 _0867_
*917 _0868_
*918 _0869_
*919 _0870_
*920 _0871_
*921 _0872_
*922 _0873_
*923 _0874_
*924 _0875_
*925 _0876_
*926 _0877_
*927 _0878_
*928 _0879_
*929 _0880_
*930 _0881_
*931 _0882_
*932 _0883_
*933 _0884_
*934 _0885_
*935 _0886_
*936 _0887_
*937 _0888_
*938 _0889_
*939 _0890_
*940 _0891_
*941 _0892_
*942 _0893_
*943 _0894_
*944 _0895_
*945 _0896_
*946 _0897_
*947 _0898_
*948 _0899_
*949 _0900_
*950 _0901_
*951 _0902_
*952 _0903_
*953 _0904_
*954 _0905_
*955 _0906_
*956 _0907_
*957 _0908_
*958 _0909_
*959 _0910_
*960 _0911_
*961 _0912_
*962 _0913_
*963 _0914_
*964 _0915_
*965 _0916_
*966 _0917_
*967 _0918_
*968 _0919_
*969 _0920_
*970 _0921_
*971 _0922_
*972 _0923_
*973 _0924_
*974 _0925_
*975 _0926_
*976 _0927_
*977 _0928_
*978 _0929_
*979 _0930_
*980 _0931_
*981 _0932_
*982 _0933_
*983 _0934_
*984 _0935_
*985 _0936_
*986 _0937_
*987 _0938_
*988 _0939_
*989 _0940_
*990 _0941_
*991 _0942_
*992 _0943_
*993 _0944_
*994 _0945_
*995 _0946_
*996 _0947_
*997 _0948_
*998 _0949_
*999 _0950_
*1000 _0951_
*1001 _0952_
*1002 _0953_
*1003 _0954_
*1004 _0955_
*1005 _0956_
*1006 _0957_
*1007 _0958_
*1008 _0959_
*1009 _0960_
*1010 _0961_
*1011 _0962_
*1012 _0963_
*1013 _0964_
*1014 _0965_
*1015 _0966_
*1016 _0967_
*1017 _0968_
*1018 _0969_
*1019 _0970_
*1020 _0971_
*1021 _0972_
*1022 _0973_
*1023 _0974_
*1024 _0975_
*1025 _0976_
*1026 _0977_
*1027 _0978_
*1028 _0979_
*1029 _0980_
*1030 _0981_
*1031 _0982_
*1032 _0983_
*1033 _0984_
*1034 _0985_
*1035 _0986_
*1036 _0987_
*1037 _0988_
*1038 _0989_
*1039 _0990_
*1040 _0991_
*1041 _0992_
*1042 _0993_
*1043 _0994_
*1044 _0995_
*1045 _0996_
*1046 _0997_
*1047 _0998_
*1048 _0999_
*1049 _1000_
*1050 _1001_
*1051 _1002_
*1052 _1003_
*1053 _1004_
*1054 _1005_
*1055 _1006_
*1056 _1007_
*1057 _1008_
*1058 _1009_
*1059 _1010_
*1060 _1011_
*1061 _1012_
*1062 _1013_
*1063 _1014_
*1064 _1015_
*1065 _1016_
*1066 _1017_
*1067 _1018_
*1068 _1019_
*1069 _1020_
*1070 _1021_
*1071 _1022_
*1072 _1023_
*1073 _1024_
*1074 _1025_
*1075 _1026_
*1076 _1027_
*1077 _1028_
*1078 _1029_
*1079 _1030_
*1080 _1031_
*1081 _1032_
*1082 _1033_
*1083 _1034_
*1084 _1035_
*1085 _1036_
*1086 _1037_
*1087 _1038_
*1088 _1039_
*1089 _1040_
*1090 _1041_
*1091 _1042_
*1092 _1043_
*1093 _1044_
*1094 _1045_
*1095 _1046_
*1096 _1047_
*1097 _1048_
*1098 _1049_
*1099 _1050_
*1100 _1051_
*1101 _1052_
*1102 _1053_
*1103 _1054_
*1104 _1055_
*1105 _1056_
*1106 _1057_
*1107 _1058_
*1108 _1059_
*1109 _1060_
*1110 _1061_
*1111 _1062_
*1112 _1063_
*1113 _1064_
*1114 _1065_
*1115 _1066_
*1116 _1067_
*1117 _1068_
*1118 _1069_
*1119 _1070_
*1120 _1071_
*1121 _1072_
*1122 _1073_
*1123 _1074_
*1124 _1075_
*1125 _1076_
*1126 _1077_
*1127 _1078_
*1128 _1079_
*1129 _1080_
*1130 _1081_
*1131 _1082_
*1132 _1083_
*1133 _1084_
*1134 _1085_
*1135 _1086_
*1136 _1087_
*1137 _1088_
*1138 _1089_
*1139 _1090_
*1140 _1091_
*1141 _1092_
*1142 _1093_
*1143 _1094_
*1144 _1095_
*1145 _1096_
*1146 _1097_
*1147 _1098_
*1148 _1099_
*1149 _1100_
*1150 _1101_
*1151 _1102_
*1152 _1103_
*1153 _1104_
*1154 _1105_
*1155 _1106_
*1156 _1107_
*1157 _1108_
*1158 _1109_
*1159 _1110_
*1160 _1111_
*1161 _1112_
*1162 _1113_
*1163 _1114_
*1164 _1115_
*1165 _1116_
*1166 _1117_
*1167 _1118_
*1168 _1119_
*1169 _1120_
*1170 _1121_
*1171 _1122_
*1172 _1123_
*1173 _1124_
*1174 _1125_
*1175 _1126_
*1176 _1127_
*1177 _1128_
*1178 _1129_
*1179 _1130_
*1180 _1131_
*1181 _1132_
*1182 _1133_
*1183 _1134_
*1184 _1135_
*1185 _1136_
*1186 _1137_
*1187 _1138_
*1188 _1139_
*1189 _1140_
*1190 _1141_
*1191 _1142_
*1192 _1143_
*1193 _1144_
*1194 _1145_
*1195 _1146_
*1196 _1147_
*1197 _1148_
*1198 _1149_
*1199 _1150_
*1200 _1151_
*1201 _1152_
*1202 _1153_
*1203 _1154_
*1204 _1155_
*1205 _1156_
*1206 _1157_
*1207 _1158_
*1208 _1159_
*1209 _1160_
*1210 _1161_
*1211 _1162_
*1212 _1163_
*1213 _1164_
*1214 _1165_
*1215 _1166_
*1216 _1167_
*1217 _1168_
*1218 _1169_
*1219 _1170_
*1220 _1171_
*1221 _1172_
*1222 _1173_
*1223 _1174_
*1224 _1175_
*1225 _1176_
*1226 _1177_
*1227 _1178_
*1228 _1179_
*1229 _1180_
*1230 _1181_
*1231 _1182_
*1232 _1183_
*1233 _1184_
*1234 _1185_
*1235 _1186_
*1236 _1187_
*1237 _1188_
*1238 _1189_
*1239 _1190_
*1240 _1191_
*1241 _1192_
*1242 _1193_
*1243 _1194_
*1244 _1195_
*1245 _1196_
*1246 _1197_
*1247 _1198_
*1248 _1199_
*1249 _1200_
*1250 _1201_
*1251 _1202_
*1252 _1203_
*1253 _1204_
*1254 _1205_
*1255 _1206_
*1256 _1207_
*1257 _1208_
*1258 _1209_
*1259 _1210_
*1260 _1211_
*1261 _1212_
*1262 _1213_
*1263 _1214_
*1264 _1215_
*1265 _1216_
*1266 _1217_
*1267 _1218_
*1268 _1219_
*1269 _1220_
*1270 _1221_
*1271 _1222_
*1272 _1223_
*1273 _1224_
*1274 _1225_
*1275 _1226_
*1276 _1227_
*1277 _1228_
*1278 _1229_
*1279 _1230_
*1280 _1231_
*1281 _1232_
*1282 _1233_
*1283 _1234_
*1284 _1235_
*1285 _1236_
*1286 _1237_
*1287 _1238_
*1288 _1239_
*1289 _1240_
*1290 _1241_
*1291 _1242_
*1292 _1243_
*1293 _1244_
*1294 _1245_
*1295 _1246_
*1296 _1247_
*1297 _1248_
*1298 _1249_
*1299 _1250_
*1300 _1251_
*1301 _1252_
*1302 _1253_
*1303 _1254_
*1304 _1255_
*1305 _1256_
*1306 _1257_
*1307 _1258_
*1308 _1259_
*1309 _1260_
*1310 _1261_
*1311 _1262_
*1312 _1263_
*1313 _1264_
*1314 _1265_
*1315 _1266_
*1316 _1267_
*1317 _1268_
*1318 _1269_
*1319 _1270_
*1320 _1271_
*1321 _1272_
*1322 _1273_
*1323 _1274_
*1324 _1275_
*1325 _1276_
*1326 _1277_
*1327 _1278_
*1328 _1279_
*1329 _1280_
*1330 _1281_
*1331 _1282_
*1332 _1283_
*1333 _1284_
*1334 _1285_
*1335 _1286_
*1336 _1287_
*1337 _1288_
*1338 _1289_
*1339 _1290_
*1340 _1291_
*1341 _1292_
*1342 _1293_
*1343 _1294_
*1344 _1295_
*1345 _1296_
*1346 _1297_
*1347 _1298_
*1348 _1299_
*1349 _1300_
*1350 _1301_
*1351 _1302_
*1352 _1303_
*1353 _1304_
*1354 _1305_
*1355 _1306_
*1356 _1307_
*1357 _1308_
*1358 _1309_
*1359 _1310_
*1360 _1311_
*1361 _1312_
*1362 _1313_
*1363 _1314_
*1364 _1315_
*1365 _1316_
*1366 _1317_
*1367 _1318_
*1368 _1319_
*1369 _1320_
*1370 _1321_
*1371 _1322_
*1372 _1323_
*1373 _1324_
*1374 _1325_
*1375 _1326_
*1376 _1327_
*1377 _1328_
*1378 _1329_
*1379 _1330_
*1380 _1331_
*1381 _1332_
*1382 _1333_
*1383 _1334_
*1384 _1335_
*1385 _1336_
*1386 _1337_
*1387 _1338_
*1388 _1339_
*1389 _1340_
*1390 _1341_
*1391 _1342_
*1392 _1343_
*1393 _1344_
*1394 _1345_
*1395 _1346_
*1396 _1347_
*1397 _1348_
*1398 _1349_
*1399 _1350_
*1400 clknet_0_clk
*1401 clknet_4_0_0_clk
*1402 clknet_4_10_0_clk
*1403 clknet_4_11_0_clk
*1404 clknet_4_12_0_clk
*1405 clknet_4_13_0_clk
*1406 clknet_4_14_0_clk
*1407 clknet_4_15_0_clk
*1408 clknet_4_1_0_clk
*1409 clknet_4_2_0_clk
*1410 clknet_4_3_0_clk
*1411 clknet_4_4_0_clk
*1412 clknet_4_5_0_clk
*1413 clknet_4_6_0_clk
*1414 clknet_4_7_0_clk
*1415 clknet_4_8_0_clk
*1416 clknet_4_9_0_clk
*1417 net1
*1418 net10
*1419 net100
*1420 net101
*1421 net102
*1422 net103
*1423 net104
*1424 net105
*1425 net106
*1426 net107
*1427 net108
*1428 net109
*1429 net11
*1430 net110
*1431 net111
*1432 net112
*1433 net113
*1434 net114
*1435 net115
*1436 net116
*1437 net117
*1438 net118
*1439 net119
*1440 net12
*1441 net120
*1442 net121
*1443 net122
*1444 net123
*1445 net124
*1446 net125
*1447 net126
*1448 net127
*1449 net128
*1450 net129
*1451 net13
*1452 net130
*1453 net131
*1454 net132
*1455 net133
*1456 net134
*1457 net135
*1458 net136
*1459 net137
*1460 net138
*1461 net139
*1462 net14
*1463 net140
*1464 net141
*1465 net142
*1466 net143
*1467 net144
*1468 net145
*1469 net146
*1470 net147
*1471 net148
*1472 net149
*1473 net15
*1474 net150
*1475 net151
*1476 net152
*1477 net153
*1478 net154
*1479 net155
*1480 net156
*1481 net157
*1482 net158
*1483 net159
*1484 net16
*1485 net160
*1486 net161
*1487 net162
*1488 net163
*1489 net164
*1490 net165
*1491 net166
*1492 net167
*1493 net168
*1494 net169
*1495 net17
*1496 net170
*1497 net171
*1498 net172
*1499 net173
*1500 net174
*1501 net175
*1502 net176
*1503 net177
*1504 net178
*1505 net179
*1506 net18
*1507 net180
*1508 net181
*1509 net182
*1510 net183
*1511 net184
*1512 net185
*1513 net186
*1514 net19
*1515 net2
*1516 net20
*1517 net21
*1518 net22
*1519 net23
*1520 net24
*1521 net25
*1522 net26
*1523 net27
*1524 net28
*1525 net29
*1526 net3
*1527 net30
*1528 net31
*1529 net32
*1530 net33
*1531 net34
*1532 net35
*1533 net36
*1534 net37
*1535 net38
*1536 net39
*1537 net4
*1538 net40
*1539 net41
*1540 net42
*1541 net43
*1542 net44
*1543 net45
*1544 net46
*1545 net47
*1546 net48
*1547 net49
*1548 net5
*1549 net50
*1550 net51
*1551 net52
*1552 net53
*1553 net54
*1554 net55
*1555 net56
*1556 net57
*1557 net58
*1558 net59
*1559 net6
*1560 net60
*1561 net61
*1562 net62
*1563 net63
*1564 net64
*1565 net65
*1566 net66
*1567 net67
*1568 net68
*1569 net69
*1570 net7
*1571 net70
*1572 net71
*1573 net72
*1574 net73
*1575 net74
*1576 net75
*1577 net76
*1578 net77
*1579 net78
*1580 net79
*1581 net8
*1582 net80
*1583 net81
*1584 net82
*1585 net83
*1586 net84
*1587 net85
*1588 net86
*1589 net87
*1590 net88
*1591 net89
*1592 net9
*1593 net90
*1594 net91
*1595 net92
*1596 net93
*1597 net94
*1598 net95
*1599 net96
*1600 net97
*1601 net98
*1602 net99
*1603 top8227\.PSRCurrentValue\[0\]
*1604 top8227\.PSRCurrentValue\[1\]
*1605 top8227\.PSRCurrentValue\[2\]
*1606 top8227\.PSRCurrentValue\[3\]
*1607 top8227\.PSRCurrentValue\[6\]
*1608 top8227\.PSRCurrentValue\[7\]
*1609 top8227\.branchBackward
*1610 top8227\.branchForward
*1611 top8227\.demux\.isAddressing
*1612 top8227\.demux\.nmi
*1613 top8227\.demux\.reset
*1614 top8227\.demux\.setInterruptFlag
*1615 top8227\.demux\.state_machine\.currentAddress\[0\]
*1616 top8227\.demux\.state_machine\.currentAddress\[10\]
*1617 top8227\.demux\.state_machine\.currentAddress\[11\]
*1618 top8227\.demux\.state_machine\.currentAddress\[12\]
*1619 top8227\.demux\.state_machine\.currentAddress\[1\]
*1620 top8227\.demux\.state_machine\.currentAddress\[2\]
*1621 top8227\.demux\.state_machine\.currentAddress\[3\]
*1622 top8227\.demux\.state_machine\.currentAddress\[4\]
*1623 top8227\.demux\.state_machine\.currentAddress\[5\]
*1624 top8227\.demux\.state_machine\.currentAddress\[6\]
*1625 top8227\.demux\.state_machine\.currentAddress\[7\]
*1626 top8227\.demux\.state_machine\.currentAddress\[8\]
*1627 top8227\.demux\.state_machine\.currentAddress\[9\]
*1628 top8227\.demux\.state_machine\.currentInstruction\[0\]
*1629 top8227\.demux\.state_machine\.currentInstruction\[1\]
*1630 top8227\.demux\.state_machine\.currentInstruction\[2\]
*1631 top8227\.demux\.state_machine\.currentInstruction\[3\]
*1632 top8227\.demux\.state_machine\.currentInstruction\[4\]
*1633 top8227\.demux\.state_machine\.currentInstruction\[5\]
*1634 top8227\.demux\.state_machine\.timeState\[0\]
*1635 top8227\.demux\.state_machine\.timeState\[1\]
*1636 top8227\.demux\.state_machine\.timeState\[2\]
*1637 top8227\.demux\.state_machine\.timeState\[3\]
*1638 top8227\.demux\.state_machine\.timeState\[4\]
*1639 top8227\.demux\.state_machine\.timeState\[5\]
*1640 top8227\.demux\.state_machine\.timeState\[6\]
*1641 top8227\.freeCarry
*1642 top8227\.instructionLoader\.interruptInjector\.interruptRequest
*1643 top8227\.instructionLoader\.interruptInjector\.irqGenerated
*1644 top8227\.instructionLoader\.interruptInjector\.irqGeneratedFF\.synchronizedIRQ
*1645 top8227\.instructionLoader\.interruptInjector\.irqSync\.nextQ2
*1646 top8227\.instructionLoader\.interruptInjector\.nmiGeneratedFF\.nmiRunning
*1647 top8227\.instructionLoader\.interruptInjector\.nmiGeneratedFF\.synchronizedNMI
*1648 top8227\.instructionLoader\.interruptInjector\.nmiSync\.in
*1649 top8227\.instructionLoader\.interruptInjector\.nmiSync\.nextQ2
*1650 top8227\.instructionLoader\.interruptInjector\.resetDetected
*1651 top8227\.internalDataflow\.accRegToDB\[0\]
*1652 top8227\.internalDataflow\.accRegToDB\[1\]
*1653 top8227\.internalDataflow\.accRegToDB\[2\]
*1654 top8227\.internalDataflow\.accRegToDB\[3\]
*1655 top8227\.internalDataflow\.accRegToDB\[4\]
*1656 top8227\.internalDataflow\.accRegToDB\[5\]
*1657 top8227\.internalDataflow\.accRegToDB\[6\]
*1658 top8227\.internalDataflow\.accRegToDB\[7\]
*1659 top8227\.internalDataflow\.addressHighBusModule\.busInputs\[16\]
*1660 top8227\.internalDataflow\.addressHighBusModule\.busInputs\[17\]
*1661 top8227\.internalDataflow\.addressHighBusModule\.busInputs\[18\]
*1662 top8227\.internalDataflow\.addressHighBusModule\.busInputs\[19\]
*1663 top8227\.internalDataflow\.addressHighBusModule\.busInputs\[20\]
*1664 top8227\.internalDataflow\.addressHighBusModule\.busInputs\[21\]
*1665 top8227\.internalDataflow\.addressHighBusModule\.busInputs\[22\]
*1666 top8227\.internalDataflow\.addressHighBusModule\.busInputs\[23\]
*1667 top8227\.internalDataflow\.addressLowBusModule\.busInputs\[16\]
*1668 top8227\.internalDataflow\.addressLowBusModule\.busInputs\[17\]
*1669 top8227\.internalDataflow\.addressLowBusModule\.busInputs\[18\]
*1670 top8227\.internalDataflow\.addressLowBusModule\.busInputs\[19\]
*1671 top8227\.internalDataflow\.addressLowBusModule\.busInputs\[20\]
*1672 top8227\.internalDataflow\.addressLowBusModule\.busInputs\[21\]
*1673 top8227\.internalDataflow\.addressLowBusModule\.busInputs\[22\]
*1674 top8227\.internalDataflow\.addressLowBusModule\.busInputs\[23\]
*1675 top8227\.internalDataflow\.addressLowBusModule\.busInputs\[24\]
*1676 top8227\.internalDataflow\.addressLowBusModule\.busInputs\[25\]
*1677 top8227\.internalDataflow\.addressLowBusModule\.busInputs\[26\]
*1678 top8227\.internalDataflow\.addressLowBusModule\.busInputs\[27\]
*1679 top8227\.internalDataflow\.addressLowBusModule\.busInputs\[28\]
*1680 top8227\.internalDataflow\.addressLowBusModule\.busInputs\[29\]
*1681 top8227\.internalDataflow\.addressLowBusModule\.busInputs\[30\]
*1682 top8227\.internalDataflow\.addressLowBusModule\.busInputs\[31\]
*1683 top8227\.internalDataflow\.addressLowBusModule\.busInputs\[32\]
*1684 top8227\.internalDataflow\.addressLowBusModule\.busInputs\[33\]
*1685 top8227\.internalDataflow\.addressLowBusModule\.busInputs\[34\]
*1686 top8227\.internalDataflow\.addressLowBusModule\.busInputs\[35\]
*1687 top8227\.internalDataflow\.addressLowBusModule\.busInputs\[36\]
*1688 top8227\.internalDataflow\.addressLowBusModule\.busInputs\[37\]
*1689 top8227\.internalDataflow\.addressLowBusModule\.busInputs\[38\]
*1690 top8227\.internalDataflow\.addressLowBusModule\.busInputs\[39\]
*1691 top8227\.internalDataflow\.psr\.processStatusReg\.stat_buf_nxt\[0\]
*1692 top8227\.internalDataflow\.psr\.processStatusReg\.stat_buf_nxt\[1\]
*1693 top8227\.internalDataflow\.psr\.processStatusReg\.stat_buf_nxt\[2\]
*1694 top8227\.internalDataflow\.psr\.processStatusReg\.stat_buf_nxt\[3\]
*1695 top8227\.internalDataflow\.psr\.processStatusReg\.stat_buf_nxt\[6\]
*1696 top8227\.internalDataflow\.stackBusModule\.busInputs\[32\]
*1697 top8227\.internalDataflow\.stackBusModule\.busInputs\[33\]
*1698 top8227\.internalDataflow\.stackBusModule\.busInputs\[34\]
*1699 top8227\.internalDataflow\.stackBusModule\.busInputs\[35\]
*1700 top8227\.internalDataflow\.stackBusModule\.busInputs\[36\]
*1701 top8227\.internalDataflow\.stackBusModule\.busInputs\[37\]
*1702 top8227\.internalDataflow\.stackBusModule\.busInputs\[38\]
*1703 top8227\.internalDataflow\.stackBusModule\.busInputs\[39\]
*1704 top8227\.internalDataflow\.stackBusModule\.busInputs\[40\]
*1705 top8227\.internalDataflow\.stackBusModule\.busInputs\[41\]
*1706 top8227\.internalDataflow\.stackBusModule\.busInputs\[42\]
*1707 top8227\.internalDataflow\.stackBusModule\.busInputs\[43\]
*1708 top8227\.internalDataflow\.stackBusModule\.busInputs\[44\]
*1709 top8227\.internalDataflow\.stackBusModule\.busInputs\[45\]
*1710 top8227\.internalDataflow\.stackBusModule\.busInputs\[46\]
*1711 top8227\.internalDataflow\.stackBusModule\.busInputs\[47\]
*1712 top8227\.negEdgeDetector\.q1
*1713 top8227\.pulse_slower\.currentEnableState\[0\]
*1714 top8227\.pulse_slower\.currentEnableState\[1\]
*1715 top8227\.pulse_slower\.nextEnableState\[0\]
*1716 top8227\.pulse_slower\.nextEnableState\[1\]
*1717 ANTENNA_1
*1718 ANTENNA_2
*1719 ANTENNA_3
*1720 ANTENNA_4
*1721 ANTENNA_5
*1722 ANTENNA_6
*1723 FILLER_0_109
*1724 FILLER_0_113
*1725 FILLER_0_119
*1726 FILLER_0_126
*1727 FILLER_0_133
*1728 FILLER_0_141
*1729 FILLER_0_15
*1730 FILLER_0_155
*1731 FILLER_0_161
*1732 FILLER_0_193
*1733 FILLER_0_205
*1734 FILLER_0_217
*1735 FILLER_0_223
*1736 FILLER_0_225
*1737 FILLER_0_237
*1738 FILLER_0_249
*1739 FILLER_0_253
*1740 FILLER_0_259
*1741 FILLER_0_266
*1742 FILLER_0_27
*1743 FILLER_0_278
*1744 FILLER_0_281
*1745 FILLER_0_29
*1746 FILLER_0_293
*1747 FILLER_0_3
*1748 FILLER_0_305
*1749 FILLER_0_309
*1750 FILLER_0_321
*1751 FILLER_0_333
*1752 FILLER_0_337
*1753 FILLER_0_349
*1754 FILLER_0_361
*1755 FILLER_0_365
*1756 FILLER_0_377
*1757 FILLER_0_381
*1758 FILLER_0_41
*1759 FILLER_0_53
*1760 FILLER_0_57
*1761 FILLER_0_69
*1762 FILLER_0_81
*1763 FILLER_0_85
*1764 FILLER_0_97
*1765 FILLER_10_105
*1766 FILLER_10_136
*1767 FILLER_10_141
*1768 FILLER_10_15
*1769 FILLER_10_171
*1770 FILLER_10_175
*1771 FILLER_10_181
*1772 FILLER_10_189
*1773 FILLER_10_205
*1774 FILLER_10_213
*1775 FILLER_10_225
*1776 FILLER_10_237
*1777 FILLER_10_249
*1778 FILLER_10_253
*1779 FILLER_10_257
*1780 FILLER_10_262
*1781 FILLER_10_27
*1782 FILLER_10_289
*1783 FILLER_10_29
*1784 FILLER_10_299
*1785 FILLER_10_3
*1786 FILLER_10_344
*1787 FILLER_10_365
*1788 FILLER_10_370
*1789 FILLER_10_41
*1790 FILLER_10_53
*1791 FILLER_10_71
*1792 FILLER_10_82
*1793 FILLER_10_85
*1794 FILLER_10_89
*1795 FILLER_11_110
*1796 FILLER_11_124
*1797 FILLER_11_15
*1798 FILLER_11_151
*1799 FILLER_11_159
*1800 FILLER_11_165
*1801 FILLER_11_169
*1802 FILLER_11_192
*1803 FILLER_11_202
*1804 FILLER_11_237
*1805 FILLER_11_245
*1806 FILLER_11_259
*1807 FILLER_11_267
*1808 FILLER_11_27
*1809 FILLER_11_3
*1810 FILLER_11_309
*1811 FILLER_11_321
*1812 FILLER_11_333
*1813 FILLER_11_337
*1814 FILLER_11_371
*1815 FILLER_11_379
*1816 FILLER_11_39
*1817 FILLER_11_49
*1818 FILLER_11_55
*1819 FILLER_11_57
*1820 FILLER_11_67
*1821 FILLER_11_95
*1822 FILLER_12_102
*1823 FILLER_12_128
*1824 FILLER_12_15
*1825 FILLER_12_153
*1826 FILLER_12_165
*1827 FILLER_12_173
*1828 FILLER_12_182
*1829 FILLER_12_197
*1830 FILLER_12_209
*1831 FILLER_12_215
*1832 FILLER_12_227
*1833 FILLER_12_233
*1834 FILLER_12_239
*1835 FILLER_12_251
*1836 FILLER_12_266
*1837 FILLER_12_27
*1838 FILLER_12_273
*1839 FILLER_12_287
*1840 FILLER_12_29
*1841 FILLER_12_296
*1842 FILLER_12_3
*1843 FILLER_12_305
*1844 FILLER_12_321
*1845 FILLER_12_337
*1846 FILLER_12_343
*1847 FILLER_12_354
*1848 FILLER_12_362
*1849 FILLER_12_365
*1850 FILLER_12_377
*1851 FILLER_12_381
*1852 FILLER_12_57
*1853 FILLER_12_61
*1854 FILLER_12_71
*1855 FILLER_12_81
*1856 FILLER_12_85
*1857 FILLER_13_107
*1858 FILLER_13_111
*1859 FILLER_13_120
*1860 FILLER_13_132
*1861 FILLER_13_15
*1862 FILLER_13_150
*1863 FILLER_13_165
*1864 FILLER_13_169
*1865 FILLER_13_181
*1866 FILLER_13_194