*SPEF "ieee 1481-1999"
*DESIGN "sample_proj"
*DATE "18:37:23 Thursday April 17, 2025"
*VENDOR "The OpenROAD Project"
*PROGRAM "OpenROAD"
*VERSION "edf00dff99f6c40d67a30c0e22a8191c5d2ed9d6"
*DESIGN_FLOW "NAME_SCOPE LOCAL" "PIN_CAP NONE"
*DIVIDER /
*DELIMITER :
*BUS_DELIMITER []
*T_UNIT 1 NS
*C_UNIT 1 PF
*R_UNIT 1 OHM
*L_UNIT 1 HENRY

*NAME_MAP
*3 clk
*4 done
*5 enable
*6 nrst
*7 out[0]
*8 out[10]
*9 out[11]
*10 out[12]
*11 out[13]
*12 out[14]
*13 out[15]
*14 out[16]
*15 out[17]
*16 out[18]
*17 out[19]
*18 out[1]
*19 out[20]
*20 out[21]
*21 out[22]
*22 out[23]
*23 out[24]
*24 out[25]
*25 out[26]
*26 out[27]
*27 out[28]
*28 out[29]
*29 out[2]
*30 out[30]
*31 out[31]
*32 out[32]
*33 out[33]
*34 out[3]
*35 out[4]
*36 out[5]
*37 out[6]
*38 out[7]
*39 out[8]
*40 out[9]
*41 prescaler[0]
*42 prescaler[10]
*43 prescaler[11]
*44 prescaler[12]
*45 prescaler[13]
*46 prescaler[1]
*47 prescaler[2]
*48 prescaler[3]
*49 prescaler[4]
*50 prescaler[5]
*51 prescaler[6]
*52 prescaler[7]
*53 prescaler[8]
*54 prescaler[9]
*55 stop
*56 _0000_
*57 _0001_
*58 _0002_
*59 _0003_
*60 _0004_
*61 _0005_
*62 _0006_
*63 _0007_
*64 _0008_
*65 _0009_
*66 _0010_
*67 _0011_
*68 _0012_
*69 _0013_
*70 _0014_
*71 _0015_
*72 _0016_
*73 _0017_
*74 _0018_
*75 _0019_
*76 _0020_
*77 _0021_
*78 _0022_
*79 _0023_
*80 _0024_
*81 _0025_
*82 _0026_
*83 _0027_
*84 _0028_
*85 _0029_
*86 _0030_
*87 _0031_
*88 _0032_
*89 _0033_
*90 _0034_
*91 _0035_
*92 _0036_
*93 _0037_
*94 _0038_
*95 _0039_
*96 _0040_
*97 _0041_
*98 _0042_
*99 _0043_
*100 _0044_
*101 _0045_
*102 _0046_
*103 _0047_
*104 _0048_
*105 _0049_
*106 _0050_
*107 _0051_
*108 _0052_
*109 _0053_
*110 _0054_
*111 _0055_
*112 _0056_
*113 _0057_
*114 _0058_
*115 _0059_
*116 _0060_
*117 _0061_
*118 _0062_
*119 _0063_
*120 _0064_
*121 _0065_
*122 _0066_
*123 _0067_
*124 _0068_
*125 _0069_
*126 _0070_
*127 _0071_
*128 _0072_
*129 _0073_
*130 _0074_
*131 _0075_
*132 _0076_
*133 _0077_
*134 _0078_
*135 _0079_
*136 _0080_
*137 _0081_
*138 _0082_
*139 _0083_
*140 _0084_
*141 _0085_
*142 _0086_
*143 _0087_
*144 _0088_
*145 _0089_
*146 _0090_
*147 _0091_
*148 _0092_
*149 _0093_
*150 _0094_
*151 _0095_
*152 _0096_
*153 _0097_
*154 _0098_
*155 _0099_
*156 _0100_
*157 _0101_
*158 _0102_
*159 _0103_
*160 _0104_
*161 _0105_
*162 _0106_
*163 _0107_
*164 _0108_
*165 _0109_
*166 _0110_
*167 _0111_
*168 _0112_
*169 _0113_
*170 _0114_
*171 _0115_
*172 _0116_
*173 _0117_
*174 _0118_
*175 _0119_
*176 _0120_
*177 _0121_
*178 _0122_
*179 _0123_
*180 _0124_
*181 _0125_
*182 _0126_
*183 _0127_
*184 _0128_
*185 _0129_
*186 _0130_
*187 _0131_
*188 _0132_
*189 _0133_
*190 _0134_
*191 _0135_
*192 _0136_
*193 _0137_
*194 _0138_
*195 _0139_
*196 _0140_
*197 _0141_
*198 _0142_
*199 _0143_
*200 _0144_
*201 _0145_
*202 _0146_
*203 _0147_
*204 _0148_
*205 _0149_
*206 _0150_
*207 _0151_
*208 _0152_
*209 _0153_
*210 _0154_
*211 _0155_
*212 _0156_
*213 _0157_
*214 _0158_
*215 _0159_
*216 _0160_
*217 _0161_
*218 _0162_
*219 _0163_
*220 _0164_
*221 _0165_
*222 _0166_
*223 _0167_
*224 _0168_
*225 _0169_
*226 _0170_
*227 _0171_
*228 _0172_
*229 _0173_
*230 _0174_
*231 _0175_
*232 _0176_
*233 _0177_
*234 _0178_
*235 _0179_
*236 _0180_
*237 _0181_
*238 _0182_
*239 _0183_
*240 _0184_
*241 _0185_
*242 _0186_
*243 _0187_
*244 _0188_
*245 _0189_
*246 _0190_
*247 _0191_
*248 _0192_
*249 _0193_
*250 _0194_
*251 _0195_
*252 _0196_
*253 _0197_
*254 _0198_
*255 _0199_
*256 _0200_
*257 _0201_
*258 _0202_
*259 _0203_
*260 _0204_
*261 _0205_
*262 _0206_
*263 _0207_
*264 _0208_
*265 _0209_
*266 _0210_
*267 _0211_
*268 _0212_
*269 _0213_
*270 _0214_
*271 _0215_
*272 _0216_
*273 _0217_
*274 _0218_
*275 _0219_
*276 _0220_
*277 _0221_
*278 _0222_
*279 _0223_
*280 _0224_
*281 _0225_
*282 _0226_
*283 _0227_
*284 _0228_
*285 _0229_
*286 _0230_
*287 _0231_
*288 _0232_
*289 _0233_
*290 _0234_
*291 _0235_
*292 _0236_
*293 _0237_
*294 _0238_
*295 _0239_
*296 _0240_
*297 _0241_
*298 _0242_
*299 _0243_
*300 _0244_
*301 _0245_
*302 _0246_
*303 _0247_
*304 _0248_
*305 _0249_
*306 _0250_
*307 _0251_
*308 _0252_
*309 _0253_
*310 _0254_
*311 _0255_
*312 _0256_
*313 _0257_
*314 _0258_
*315 _0259_
*316 _0260_
*317 _0261_
*318 _0262_
*319 _0263_
*320 _0264_
*321 _0265_
*322 _0266_
*323 _0267_
*324 _0268_
*325 _0269_
*326 _0270_
*327 _0271_
*328 _0272_
*329 _0273_
*330 _0274_
*331 _0275_
*332 _0276_
*333 _0277_
*334 _0278_
*335 _0279_
*336 _0280_
*337 _0281_
*338 _0282_
*339 _0283_
*340 _0284_
*341 _0285_
*342 _0286_
*343 _0287_
*344 _0288_
*345 _0289_
*346 _0290_
*347 _0291_
*348 _0292_
*349 _0293_
*350 _0294_
*351 _0295_
*352 _0296_
*353 _0297_
*354 _0298_
*355 _0299_
*356 _0300_
*357 _0301_
*358 _0302_
*359 _0303_
*360 _0304_
*361 _0305_
*362 _0306_
*363 _0307_
*364 _0308_
*365 _0309_
*366 _0310_
*367 _0311_
*368 _0312_
*369 _0313_
*370 _0314_
*371 _0315_
*372 _0316_
*373 _0317_
*374 _0318_
*375 _0319_
*376 _0320_
*377 _0321_
*378 _0322_
*379 _0323_
*380 _0324_
*381 _0325_
*382 _0326_
*383 _0327_
*384 _0328_
*385 _0329_
*386 _0330_
*387 _0331_
*388 _0332_
*389 _0333_
*390 _0334_
*391 _0335_
*392 _0336_
*393 _0337_
*394 _0338_
*395 _0339_
*396 _0340_
*397 _0341_
*398 _0342_
*399 _0343_
*400 _0344_
*401 _0345_
*402 _0346_
*403 _0347_
*404 _0348_
*405 _0349_
*406 _0350_
*407 _0351_
*408 _0352_
*409 _0353_
*410 _0354_
*411 _0355_
*412 _0356_
*413 _0357_
*414 _0358_
*415 _0359_
*416 _0360_
*417 _0361_
*418 _0362_
*419 _0363_
*420 _0364_
*421 _0365_
*422 _0366_
*423 _0367_
*424 _0368_
*425 _0369_
*426 _0370_
*427 _0371_
*428 _0372_
*429 _0373_
*430 _0374_
*431 _0375_
*432 _0376_
*433 _0377_
*434 _0378_
*435 _0379_
*436 _0380_
*437 _0381_
*438 _0382_
*439 _0383_
*440 _0384_
*441 _0385_
*442 _0386_
*443 _0387_
*444 _0388_
*445 _0389_
*446 _0390_
*447 _0391_
*448 _0392_
*449 _0393_
*450 _0394_
*451 _0395_
*452 _0396_
*453 _0397_
*454 _0398_
*455 _0399_
*456 _0400_
*457 _0401_
*458 _0402_
*459 _0403_
*460 _0404_
*461 _0405_
*462 _0406_
*463 _0407_
*464 _0408_
*465 _0409_
*466 _0410_
*467 _0411_
*468 _0412_
*469 _0413_
*470 _0414_
*471 _0415_
*472 _0416_
*473 _0417_
*474 _0418_
*475 _0419_
*476 _0420_
*477 _0421_
*478 _0422_
*479 _0423_
*480 _0424_
*481 _0425_
*482 _0426_
*483 _0427_
*484 _0428_
*485 _0429_
*486 _0430_
*487 _0431_
*488 _0432_
*489 _0433_
*490 _0434_
*491 _0435_
*492 _0436_
*493 _0437_
*494 _0438_
*495 _0439_
*496 _0440_
*497 _0441_
*498 _0442_
*499 _0443_
*500 _0444_
*501 _0445_
*502 _0446_
*503 _0447_
*504 _0448_
*505 _0449_
*506 _0450_
*507 _0451_
*508 _0452_
*509 _0453_
*510 _0454_
*511 _0455_
*512 _0456_
*513 _0457_
*514 _0458_
*515 _0459_
*516 _0460_
*517 _0461_
*518 _0462_
*519 _0463_
*520 _0464_
*521 _0465_
*522 _0466_
*523 _0467_
*524 _0468_
*525 _0469_
*526 _0470_
*527 _0471_
*528 _0472_
*529 _0473_
*530 _0474_
*531 _0475_
*532 _0476_
*533 _0477_
*534 _0478_
*535 _0479_
*536 _0480_
*537 _0481_
*538 _0482_
*539 _0483_
*540 _0484_
*541 _0485_
*542 _0486_
*543 _0487_
*544 _0488_
*545 _0489_
*546 _0490_
*547 _0491_
*548 _0492_
*549 _0493_
*550 _0494_
*551 _0495_
*552 _0496_
*553 _0497_
*554 _0498_
*555 _0499_
*556 _0500_
*557 _0501_
*558 _0502_
*559 _0503_
*560 _0504_
*561 _0505_
*562 _0506_
*563 _0507_
*564 _0508_
*565 _0509_
*566 _0510_
*567 _0511_
*568 _0512_
*569 _0513_
*570 _0514_
*571 _0515_
*572 _0516_
*573 _0517_
*574 _0518_
*575 _0519_
*576 _0520_
*577 _0521_
*578 _0522_
*579 _0523_
*580 _0524_
*581 _0525_
*582 _0526_
*583 _0527_
*584 _0528_
*585 _0529_
*586 _0530_
*587 _0531_
*588 _0532_
*589 _0533_
*590 _0534_
*591 _0535_
*592 _0536_
*593 _0537_
*594 _0538_
*595 _0539_
*596 _0540_
*597 _0541_
*598 _0542_
*599 _0543_
*600 _0544_
*601 _0545_
*602 _0546_
*603 _0547_
*604 _0548_
*605 _0549_
*606 _0550_
*607 _0551_
*608 _0552_
*609 _0553_
*610 _0554_
*611 _0555_
*612 _0556_
*613 _0557_
*614 _0558_
*615 _0559_
*616 _0560_
*617 _0561_
*618 _0562_
*619 _0563_
*620 _0564_
*621 _0565_
*622 _0566_
*623 _0567_
*624 _0568_
*625 _0569_
*626 _0570_
*627 _0571_
*628 _0572_
*629 _0573_
*630 _0574_
*631 _0575_
*632 _0576_
*633 _0577_
*634 _0578_
*635 _0579_
*636 _0580_
*637 _0581_
*638 _0582_
*639 _0583_
*640 _0584_
*641 _0585_
*642 _0586_
*643 _0587_
*644 _0588_
*645 _0589_
*646 _0590_
*647 _0591_
*648 _0592_
*649 _0593_
*650 _0594_
*651 _0595_
*652 _0596_
*653 _0597_
*654 _0598_
*655 _0599_
*656 _0600_
*657 _0601_
*658 _0602_
*659 _0603_
*660 _0604_
*661 _0605_
*662 _0606_
*663 _0607_
*664 _0608_
*665 _0609_
*666 _0610_
*667 _0611_
*668 _0612_
*669 _0613_
*670 _0614_
*671 _0615_
*672 _0616_
*673 _0617_
*674 _0618_
*675 _0619_
*676 _0620_
*677 clk_divider\.count_out\[0\]
*678 clk_divider\.count_out\[10\]
*679 clk_divider\.count_out\[11\]
*680 clk_divider\.count_out\[12\]
*681 clk_divider\.count_out\[13\]
*682 clk_divider\.count_out\[14\]
*683 clk_divider\.count_out\[15\]
*684 clk_divider\.count_out\[16\]
*685 clk_divider\.count_out\[17\]
*686 clk_divider\.count_out\[18\]
*687 clk_divider\.count_out\[19\]
*688 clk_divider\.count_out\[1\]
*689 clk_divider\.count_out\[20\]
*690 clk_divider\.count_out\[21\]
*691 clk_divider\.count_out\[22\]
*692 clk_divider\.count_out\[23\]
*693 clk_divider\.count_out\[24\]
*694 clk_divider\.count_out\[25\]
*695 clk_divider\.count_out\[26\]
*696 clk_divider\.count_out\[27\]
*697 clk_divider\.count_out\[2\]
*698 clk_divider\.count_out\[3\]
*699 clk_divider\.count_out\[4\]
*700 clk_divider\.count_out\[5\]
*701 clk_divider\.count_out\[6\]
*702 clk_divider\.count_out\[7\]
*703 clk_divider\.count_out\[8\]
*704 clk_divider\.count_out\[9\]
*705 clk_divider\.next_count\[0\]
*706 clk_divider\.next_count\[10\]
*707 clk_divider\.next_count\[11\]
*708 clk_divider\.next_count\[12\]
*709 clk_divider\.next_count\[13\]
*710 clk_divider\.next_count\[14\]
*711 clk_divider\.next_count\[15\]
*712 clk_divider\.next_count\[16\]
*713 clk_divider\.next_count\[17\]
*714 clk_divider\.next_count\[18\]
*715 clk_divider\.next_count\[19\]
*716 clk_divider\.next_count\[1\]
*717 clk_divider\.next_count\[20\]
*718 clk_divider\.next_count\[21\]
*719 clk_divider\.next_count\[22\]
*720 clk_divider\.next_count\[23\]
*721 clk_divider\.next_count\[24\]
*722 clk_divider\.next_count\[25\]
*723 clk_divider\.next_count\[26\]
*724 clk_divider\.next_count\[27\]
*725 clk_divider\.next_count\[2\]
*726 clk_divider\.next_count\[3\]
*727 clk_divider\.next_count\[4\]
*728 clk_divider\.next_count\[5\]
*729 clk_divider\.next_count\[6\]
*730 clk_divider\.next_count\[7\]
*731 clk_divider\.next_count\[8\]
*732 clk_divider\.next_count\[9\]
*733 clk_divider\.next_flag
*734 clk_divider\.rollover_flag
*735 clknet_0_clk
*736 clknet_2_0__leaf_clk
*737 clknet_2_1__leaf_clk
*738 clknet_2_2__leaf_clk
*739 clknet_2_3__leaf_clk
*740 count\[0\]
*741 count\[1\]
*742 count\[2\]
*743 count\[3\]
*744 count\[4\]
*745 count\[5\]
*746 counter_to_35\.next_count\[0\]
*747 counter_to_35\.next_count\[1\]
*748 counter_to_35\.next_count\[2\]
*749 counter_to_35\.next_count\[3\]
*750 counter_to_35\.next_count\[4\]
*751 counter_to_35\.next_count\[5\]
*752 counter_to_35\.next_flag
*753 net1
*754 net10
*755 net11
*756 net12
*757 net13
*758 net14
*759 net15
*760 net16
*761 net17
*762 net18
*763 net19
*764 net2
*765 net20
*766 net21
*767 net22
*768 net23
*769 net24
*770 net25
*771 net26
*772 net27
*773 net28
*774 net29
*775 net3
*776 net30
*777 net31
*778 net32
*779 net33
*780 net34
*781 net35
*782 net36
*783 net37
*784 net38
*785 net39
*786 net4
*787 net40
*788 net41
*789 net42
*790 net43
*791 net44
*792 net45
*793 net46
*794 net47
*795 net48
*796 net49
*797 net5
*798 net50
*799 net51
*800 net52
*801 net53
*802 net54
*803 net55
*804 net56
*805 net57
*806 net58
*807 net59
*808 net6
*809 net60
*810 net61
*811 net62
*812 net63
*813 net64
*814 net65
*815 net66
*816 net67
*817 net68
*818 net69
*819 net7
*820 net70
*821 net71
*822 net72
*823 net73
*824 net74
*825 net75
*826 net76
*827 net77
*828 net78
*829 net79
*830 net8
*831 net80
*832 net81
*833 net82
*834 net83
*835 net84
*836 net85
*837 net86
*838 net87
*839 net88
*840 net89
*841 net9
*842 net90
*843 net91
*844 FILLER_0_103
*845 FILLER_0_111
*846 FILLER_0_113
*847 FILLER_0_125
*848 FILLER_0_137
*849 FILLER_0_141
*850 FILLER_0_15
*851 FILLER_0_153
*852 FILLER_0_165
*853 FILLER_0_169
*854 FILLER_0_181
*855 FILLER_0_193
*856 FILLER_0_197
*857 FILLER_0_209
*858 FILLER_0_221
*859 FILLER_0_225
*860 FILLER_0_237
*861 FILLER_0_249
*862 FILLER_0_253
*863 FILLER_0_265
*864 FILLER_0_27
*865 FILLER_0_277
*866 FILLER_0_281
*867 FILLER_0_289
*868 FILLER_0_29
*869 FILLER_0_3
*870 FILLER_0_41
*871 FILLER_0_49
*872 FILLER_0_55
*873 FILLER_0_57
*874 FILLER_0_69
*875 FILLER_0_81
*876 FILLER_0_85
*877 FILLER_0_91
*878 FILLER_10_132
*879 FILLER_10_138
*880 FILLER_10_141
*881 FILLER_10_15
*882 FILLER_10_153
*883 FILLER_10_164
*884 FILLER_10_220
*885 FILLER_10_231
*886 FILLER_10_261
*887 FILLER_10_27
*888 FILLER_10_273
*889 FILLER_10_285
*890 FILLER_10_29
*891 FILLER_10_3
*892 FILLER_10_58
*893 FILLER_10_70
*894 FILLER_10_82
*895 FILLER_10_85
*896 FILLER_10_89
*897 FILLER_10_93
*898 FILLER_11_109
*899 FILLER_11_113
*900 FILLER_11_117
*901 FILLER_11_128
*902 FILLER_11_140
*903 FILLER_11_149
*904 FILLER_11_15
*905 FILLER_11_161
*906 FILLER_11_167
*907 FILLER_11_169
*908 FILLER_11_177
*909 FILLER_11_189
*910 FILLER_11_193
*911 FILLER_11_197
*912 FILLER_11_210
*913 FILLER_11_222
*914 FILLER_11_225
*915 FILLER_11_233
*916 FILLER_11_265
*917 FILLER_11_27
*918 FILLER_11_277
*919 FILLER_11_281
*920 FILLER_11_289
*921 FILLER_11_3
*922 FILLER_11_39
*923 FILLER_11_43
*924 FILLER_11_47
*925 FILLER_11_51
*926 FILLER_11_64
*927 FILLER_11_72
*928 FILLER_11_80
*929 FILLER_11_88
*930 FILLER_11_97
*931 FILLER_12_109
*932 FILLER_12_126
*933 FILLER_12_133
*934 FILLER_12_139
*935 FILLER_12_141
*936 FILLER_12_15
*937 FILLER_12_153
*938 FILLER_12_165
*939 FILLER_12_178
*940 FILLER_12_190
*941 FILLER_12_197
*942 FILLER_12_209
*943 FILLER_12_221
*944 FILLER_12_233
*945 FILLER_12_264
*946 FILLER_12_27
*947 FILLER_12_276
*948 FILLER_12_288
*949 FILLER_12_29
*950 FILLER_12_3
*951 FILLER_12_48
*952 FILLER_12_57
*953 FILLER_12_69
*954 FILLER_12_75
*955 FILLER_12_79
*956 FILLER_12_83
*957 FILLER_12_85
*958 FILLER_12_91
*959 FILLER_12_97
*960 FILLER_13_100
*961 FILLER_13_113
*962 FILLER_13_117
*963 FILLER_13_137
*964 FILLER_13_149
*965 FILLER_13_15
*966 FILLER_13_161
*967 FILLER_13_167
*968 FILLER_13_169
*969 FILLER_13_181
*970 FILLER_13_190
*971 FILLER_13_195
*972 FILLER_13_207
*973 FILLER_13_220
*974 FILLER_13_234
*975 FILLER_13_246
*976 FILLER_13_255
*977 FILLER_13_267
*978 FILLER_13_27
*979 FILLER_13_279
*980 FILLER_13_281
*981 FILLER_13_289
*982 FILLER_13_3
*983 FILLER_13_39
*984 FILLER_13_51
*985 FILLER_13_55
*986 FILLER_13_57
*987 FILLER_13_69
*988 FILLER_13_81
*989 FILLER_13_88
*990 FILLER_14_109
*991 FILLER_14_113
*992 FILLER_14_149
*993 FILLER_14_15
*994 FILLER_14_161
*995 FILLER_14_174
*996 FILLER_14_186
*997 FILLER_14_194
*998 FILLER_14_205
*999 FILLER_14_23
*1000 FILLER_14_231
*1001 FILLER_14_243
*1002 FILLER_14_251
*1003 FILLER_14_256
*1004 FILLER_14_27
*1005 FILLER_14_280
*1006 FILLER_14_288
*1007 FILLER_14_3
*1008 FILLER_14_39
*1009 FILLER_14_51
*1010 FILLER_14_63
*1011 FILLER_14_83
*1012 FILLER_14_97
*1013 FILLER_15_111
*1014 FILLER_15_123
*1015 FILLER_15_13
*1016 FILLER_15_134
*1017 FILLER_15_148
*1018 FILLER_15_157
*1019 FILLER_15_161
*1020 FILLER_15_186
*1021 FILLER_15_198
*1022 FILLER_15_206
*1023 FILLER_15_223
*1024 FILLER_15_225
*1025 FILLER_15_237
*1026 FILLER_15_245
*1027 FILLER_15_25
*1028 FILLER_15_262
*1029 FILLER_15_274
*1030 FILLER_15_281
*1031 FILLER_15_289
*1032 FILLER_15_3
*1033 FILLER_15_37
*1034 FILLER_15_49
*1035 FILLER_15_64
*1036 FILLER_15_73
*1037 FILLER_15_84
*1038 FILLER_15_99
*1039 FILLER_16_107
*1040 FILLER_16_115
*1041 FILLER_16_124
*1042 FILLER_16_138
*1043 FILLER_16_141
*1044 FILLER_16_15
*1045 FILLER_16_153
*1046 FILLER_16_186
*1047 FILLER_16_19
*1048 FILLER_16_192
*1049 FILLER_16_204
*1050 FILLER_16_212
*1051 FILLER_16_224
*1052 FILLER_16_23
*1053 FILLER_16_236
*1054 FILLER_16_27
*1055 FILLER_16_273
*1056 FILLER_16_285
*1057 FILLER_16_3
*1058 FILLER_16_36
*1059 FILLER_16_50
*1060 FILLER_16_62
*1061 FILLER_16_72
*1062 FILLER_16_85
*1063 FILLER_16_96
*1064 FILLER_17_104
*1065 FILLER_17_113
*1066 FILLER_17_121
*1067 FILLER_17_137
*1068 FILLER_17_145
*1069 FILLER_17_150
*1070 FILLER_17_167
*1071 FILLER_17_169
*1072 FILLER_17_197
*1073 FILLER_17_21
*1074 FILLER_17_212
*1075 FILLER_17_225
*1076 FILLER_17_237
*1077 FILLER_17_256
*1078 FILLER_17_262
*1079 FILLER_17_269
*1080 FILLER_17_27
*1081 FILLER_17_277
*1082 FILLER_17_281
*1083 FILLER_17_289
*1084 FILLER_17_48
*1085 FILLER_17_57
*1086 FILLER_17_69
*1087 FILLER_17_77
*1088 FILLER_17_88
*1089 FILLER_17_9
*1090 FILLER_17_96
*1091 FILLER_18_109
*1092 FILLER_18_121
*1093 FILLER_18_129
*1094 FILLER_18_137
*1095 FILLER_18_141
*1096 FILLER_18_153
*1097 FILLER_18_172
*1098 FILLER_18_193
*1099 FILLER_18_20
*1100 FILLER_18_205
*1101 FILLER_18_228
*1102 FILLER_18_240
*1103 FILLER_18_253
*1104 FILLER_18_265
*1105 FILLER_18_277
*1106 FILLER_18_289
*1107 FILLER_18_29
*1108 FILLER_18_3
*1109 FILLER_18_41
*1110 FILLER_18_53
*1111 FILLER_18_70
*1112 FILLER_18_82
*1113 FILLER_18_85
*1114 FILLER_18_97
*1115 FILLER_19_11
*1116 FILLER_19_110
*1117 FILLER_19_113
*1118 FILLER_19_125
*1119 FILLER_19_134
*1120 FILLER_19_146
*1121 FILLER_19_15
*1122 FILLER_19_160
*1123 FILLER_19_166
*1124 FILLER_19_169
*1125 FILLER_19_178
*1126 FILLER_19_193
*1127 FILLER_19_201
*1128 FILLER_19_219
*1129 FILLER_19_223
*1130 FILLER_19_235
*1131 FILLER_19_252
*1132 FILLER_19_264
*1133 FILLER_19_27
*1134 FILLER_19_276
*1135 FILLER_19_281
*1136 FILLER_19_289
*1137 FILLER_19_3
*1138 FILLER_19_39
*1139 FILLER_19_60
*1140 FILLER_19_82
*1141 FILLER_19_98
*1142 FILLER_1_105
*1143 FILLER_1_111
*1144 FILLER_1_113
*1145 FILLER_1_125
*1146 FILLER_1_137
*1147 FILLER_1_149
*1148 FILLER_1_15
*1149 FILLER_1_161
*1150 FILLER_1_167
*1151 FILLER_1_169
*1152 FILLER_1_181
*1153 FILLER_1_193
*1154 FILLER_1_205
*1155 FILLER_1_217
*1156 FILLER_1_223
*1157 FILLER_1_225
*1158 FILLER_1_237
*1159 FILLER_1_249
*1160 FILLER_1_261
*1161 FILLER_1_27
*1162 FILLER_1_273
*1163 FILLER_1_279
*1164 FILLER_1_281
*1165 FILLER_1_289
*1166 FILLER_1_3
*1167 FILLER_1_39
*1168 FILLER_1_51
*1169 FILLER_1_55
*1170 FILLER_1_57
*1171 FILLER_1_69
*1172 FILLER_1_81
*1173 FILLER_1_93
*1174 FILLER_20_101
*1175 FILLER_20_113
*1176 FILLER_20_122
*1177 FILLER_20_133
*1178 FILLER_20_139
*1179 FILLER_20_141
*1180 FILLER_20_15
*1181 FILLER_20_170
*1182 FILLER_20_182
*1183 FILLER_20_192
*1184 FILLER_20_197
*1185 FILLER_20_232
*1186 FILLER_20_241
*1187 FILLER_20_249
*1188 FILLER_20_260
*1189 FILLER_20_27
*1190 FILLER_20_272
*1191 FILLER_20_284
*1192 FILLER_20_29
*1193 FILLER_20_290
*1194 FILLER_20_3
*1195 FILLER_20_46
*1196 FILLER_20_58
*1197 FILLER_20_62
*1198 FILLER_20_67
*1199 FILLER_20_75
*1200 FILLER_21_106
*1201 FILLER_21_143
*1202 FILLER_21_164
*1203 FILLER_21_169
*1204 FILLER_21_17
*1205 FILLER_21_178
*1206 FILLER_21_225
*1207 FILLER_21_268
*1208 FILLER_21_281
*1209 FILLER_21_289
*1210 FILLER_21_31
*1211 FILLER_21_36
*1212 FILLER_21_48
*1213 FILLER_21_57
*1214 FILLER_21_71
*1215 FILLER_21_79
*1216 FILLER_21_9
*1217 FILLER_21_94
*1218 FILLER_22_105
*1219 FILLER_22_141
*1220 FILLER_22_164
*1221 FILLER_22_168
*1222 FILLER_22_176
*1223 FILLER_22_188
*1224 FILLER_22_197
*1225 FILLER_22_211
*1226 FILLER_22_223
*1227 FILLER_22_235
*1228 FILLER_22_239
*1229 FILLER_22_246
*1230 FILLER_22_266
*1231 FILLER_22_278
*1232 FILLER_22_286
*1233 FILLER_22_3
*1234 FILLER_22_36
*1235 FILLER_22_68
*1236 FILLER_22_80
*1237 FILLER_22_85
*1238 FILLER_22_97
*1239 FILLER_23_108
*1240 FILLER_23_132
*1241 FILLER_23_144
*1242 FILLER_23_15
*1243 FILLER_23_159
*1244 FILLER_23_167
*1245 FILLER_23_169
*1246 FILLER_23_181
*1247 FILLER_23_187
*1248 FILLER_23_194
*1249 FILLER_23_206
*1250 FILLER_23_21
*1251 FILLER_23_221
*1252 FILLER_23_225
*1253 FILLER_23_237
*1254 FILLER_23_249
*1255 FILLER_23_253
*1256 FILLER_23_26
*1257 FILLER_23_265
*1258 FILLER_23_277
*1259 FILLER_23_281
*1260 FILLER_23_289
*1261 FILLER_23_3
*1262 FILLER_23_38
*1263 FILLER_23_46
*1264 FILLER_23_53
*1265 FILLER_23_57
*1266 FILLER_23_69
*1267 FILLER_23_73
*1268 FILLER_23_96
*1269 FILLER_24_110
*1270 FILLER_24_122
*1271 FILLER_24_134
*1272 FILLER_24_141
*1273 FILLER_24_153
*1274 FILLER_24_165
*1275 FILLER_24_177
*1276 FILLER_24_189
*1277 FILLER_24_195
*1278 FILLER_24_204
*1279 FILLER_24_208
*1280 FILLER_24_227
*1281 FILLER_24_235
*1282 FILLER_24_241
*1283 FILLER_24_26
*1284 FILLER_24_262
*1285 FILLER_24_274
*1286 FILLER_24_286
*1287 FILLER_24_29
*1288 FILLER_24_290
*1289 FILLER_24_33
*1290 FILLER_24_44
*1291 FILLER_24_56
*1292 FILLER_24_68
*1293 FILLER_24_77
*1294 FILLER_24_85
*1295 FILLER_24_9
*1296 FILLER_25_111
*1297 FILLER_25_113
*1298 FILLER_25_125
*1299 FILLER_25_13
*1300 FILLER_25_133
*1301 FILLER_25_145
*1302 FILLER_25_157
*1303 FILLER_25_165
*1304 FILLER_25_169
*1305 FILLER_25_177
*1306 FILLER_25_190
*1307 FILLER_25_218
*1308 FILLER_25_222
*1309 FILLER_25_225
*1310 FILLER_25_231
*1311 FILLER_25_25
*1312 FILLER_25_251
*1313 FILLER_25_259
*1314 FILLER_25_268
*1315 FILLER_25_281
*1316 FILLER_25_289
*1317 FILLER_25_29
*1318 FILLER_25_3
*1319 FILLER_25_47
*1320 FILLER_25_55
*1321 FILLER_25_57
*1322 FILLER_25_80
*1323 FILLER_26_102
*1324 FILLER_26_114
*1325 FILLER_26_118
*1326 FILLER_26_135
*1327 FILLER_26_139
*1328 FILLER_26_141
*1329 FILLER_26_153
*1330 FILLER_26_16
*1331 FILLER_26_165
*1332 FILLER_26_173
*1333 FILLER_26_194
*1334 FILLER_26_197
*1335 FILLER_26_209
*1336 FILLER_26_223
*1337 FILLER_26_227
*1338 FILLER_26_231
*1339 FILLER_26_239
*1340 FILLER_26_244
*1341 FILLER_26_26
*1342 FILLER_26_279
*1343 FILLER_26_3
*1344 FILLER_26_42
*1345 FILLER_26_68
*1346 FILLER_26_76
*1347 FILLER_26_85
*1348 FILLER_26_90
*1349 FILLER_27_107
*1350 FILLER_27_111
*1351 FILLER_27_113
*1352 FILLER_27_142
*1353 FILLER_27_178
*1354 FILLER_27_223
*1355 FILLER_27_228
*1356 FILLER_27_25
*1357 FILLER_27_259
*1358 FILLER_27_271
*1359 FILLER_27_279
*1360 FILLER_27_281
*1361 FILLER_27_289
*1362 FILLER_27_32
*1363 FILLER_27_44
*1364 FILLER_28_111
*1365 FILLER_28_137
*1366 FILLER_28_141
*1367 FILLER_28_15
*1368 FILLER_28_179
*1369 FILLER_28_194
*1370 FILLER_28_197
*1371 FILLER_28_205
*1372 FILLER_28_222
*1373 FILLER_28_230
*1374 FILLER_28_241
*1375 FILLER_28_27
*1376 FILLER_28_276
*1377 FILLER_28_288
*1378 FILLER_28_29
*1379 FILLER_28_3
*1380 FILLER_28_41
*1381 FILLER_28_53
*1382 FILLER_28_59
*1383 FILLER_28_82
*1384 FILLER_29_108
*1385 FILLER_29_113
*1386 FILLER_29_140
*1387 FILLER_29_148
*1388 FILLER_29_15
*1389 FILLER_29_169
*1390 FILLER_29_177
*1391 FILLER_29_184
*1392 FILLER_29_196
*1393 FILLER_29_208
*1394 FILLER_29_220
*1395 FILLER_29_225
*1396 FILLER_29_233
*1397 FILLER_29_256
*1398 FILLER_29_268
*1399 FILLER_29_281
*1400 FILLER_29_289
*1401 FILLER_29_3
*1402 FILLER_29_34
*1403 FILLER_29_52
*1404 FILLER_29_60
*1405 FILLER_29_74
*1406 FILLER_29_93
*1407 FILLER_2_109
*1408 FILLER_2_121
*1409 FILLER_2_133
*1410 FILLER_2_139
*1411 FILLER_2_141
*1412 FILLER_2_15
*1413 FILLER_2_153
*1414 FILLER_2_165
*1415 FILLER_2_177
*1416 FILLER_2_189
*1417 FILLER_2_195
*1418 FILLER_2_197
*1419 FILLER_2_209
*1420 FILLER_2_221
*1421 FILLER_2_233
*1422 FILLER_2_245
*1423 FILLER_2_251
*1424 FILLER_2_253
*1425 FILLER_2_265
*1426 FILLER_2_27
*1427 FILLER_2_277
*1428 FILLER_2_289
*1429 FILLER_2_29
*1430 FILLER_2_3
*1431 FILLER_2_41
*1432 FILLER_2_53
*1433 FILLER_2_65
*1434 FILLER_2_77
*1435 FILLER_2_83
*1436 FILLER_2_85
*1437 FILLER_2_97
*1438 FILLER_30_111
*1439 FILLER_30_123
*1440 FILLER_30_127
*1441 FILLER_30_133
*1442 FILLER_30_139
*1443 FILLER_30_141
*1444 FILLER_30_15
*1445 FILLER_30_156
*1446 FILLER_30_162
*1447 FILLER_30_174
*1448 FILLER_30_197
*1449 FILLER_30_209
*1450 FILLER_30_215
*1451 FILLER_30_23
*1452 FILLER_30_236
*1453 FILLER_30_248
*1454 FILLER_30_253
*1455 FILLER_30_265
*1456 FILLER_30_29
*1457 FILLER_30_3
*1458 FILLER_30_33
*1459 FILLER_30_73
*1460 FILLER_30_81
*1461 FILLER_30_88
*1462 FILLER_30_99
*1463 FILLER_31_111
*1464 FILLER_31_113
*1465 FILLER_31_125
*1466 FILLER_31_138
*1467 FILLER_31_150
*1468 FILLER_31_162
*1469 FILLER_31_169
*1470 FILLER_31_181
*1471 FILLER_31_187
*1472 FILLER_31_194
*1473 FILLER_31_203
*1474 FILLER_31_215
*1475 FILLER_31_22
*1476 FILLER_31_223
*1477 FILLER_31_225
*1478 FILLER_31_231
*1479 FILLER_31_245
*1480 FILLER_31_257
*1481 FILLER_31_269
*1482 FILLER_31_277
*1483 FILLER_31_281
*1484 FILLER_31_47
*1485 FILLER_31_55
*1486 FILLER_31_57
*1487 FILLER_31_69
*1488 FILLER_31_87
*1489 FILLER_31_99
*1490 FILLER_32_139
*1491 FILLER_32_141
*1492 FILLER_32_147
*1493 FILLER_32_151
*1494 FILLER_32_157
*1495 FILLER_32_169
*1496 FILLER_32_181
*1497 FILLER_32_197
*1498 FILLER_32_212
*1499 FILLER_32_220
*1500 FILLER_32_250
*1501 FILLER_32_253
*1502 FILLER_32_26
*1503 FILLER_32_265
*1504 FILLER_32_286
*1505 FILLER_32_29
*1506 FILLER_32_290
*1507 FILLER_32_33
*1508 FILLER_32_37
*1509 FILLER_32_49
*1510 FILLER_32_61
*1511 FILLER_32_67
*1512 FILLER_32_75
*1513 FILLER_32_83
*1514 FILLER_32_9
*1515 FILLER_32_98
*1516 FILLER_33_110
*1517 FILLER_33_128
*1518 FILLER_33_143
*1519 FILLER_33_167
*1520 FILLER_33_19
*1521 FILLER_33_221
*1522 FILLER_33_253
*1523 FILLER_33_265
*1524 FILLER_33_278
*1525 FILLER_33_281
*1526 FILLER_33_289
*1527 FILLER_33_3
*1528 FILLER_33_31
*1529 FILLER_33_39
*1530 FILLER_33_57
*1531 FILLER_33_74
*1532 FILLER_33_86
*1533 FILLER_33_98
*1534 FILLER_34_147
*1535 FILLER_34_15
*1536 FILLER_34_162
*1537 FILLER_34_173
*1538 FILLER_34_182
*1539 FILLER_34_194
*1540 FILLER_34_245
*1541 FILLER_34_251
*1542 FILLER_34_253
*1543 FILLER_34_257
*1544 FILLER_34_27
*1545 FILLER_34_283
*1546 FILLER_34_32
*1547 FILLER_34_43
*1548 FILLER_34_53
*1549 FILLER_34_66
*1550 FILLER_34_78
*1551 FILLER_34_85
*1552 FILLER_34_97
*1553 FILLER_35_102
*1554 FILLER_35_110
*1555 FILLER_35_113
*1556 FILLER_35_146
*1557 FILLER_35_155
*1558 FILLER_35_161
*1559 FILLER_35_169
*1560 FILLER_35_173
*1561 FILLER_35_19
*1562 FILLER_35_196
*1563 FILLER_35_200
*1564 FILLER_35_205
*1565 FILLER_35_212
*1566 FILLER_35_225
*1567 FILLER_35_23
*1568 FILLER_35_233
*1569 FILLER_35_241
*1570 FILLER_35_253
*1571 FILLER_35_277
*1572 FILLER_35_285
*1573 FILLER_35_3
*1574 FILLER_35_50
*1575 FILLER_35_57
*1576 FILLER_35_78
*1577 FILLER_35_90
*1578 FILLER_36_104
*1579 FILLER_36_116
*1580 FILLER_36_128
*1581 FILLER_36_132
*1582 FILLER_36_136
*1583 FILLER_36_141
*1584 FILLER_36_157
*1585 FILLER_36_163
*1586 FILLER_36_179
*1587 FILLER_36_191
*1588 FILLER_36_195
*1589 FILLER_36_197
*1590 FILLER_36_209
*1591 FILLER_36_221
*1592 FILLER_36_233
*1593 FILLER_36_24
*1594 FILLER_36_245
*1595 FILLER_36_251
*1596 FILLER_36_253
*1597 FILLER_36_261
*1598 FILLER_36_275
*1599 FILLER_36_287
*1600 FILLER_36_39
*1601 FILLER_36_51
*1602 FILLER_36_6
*1603 FILLER_36_63
*1604 FILLER_36_70
*1605 FILLER_36_82
*1606 FILLER_36_85
*1607 FILLER_37_101
*1608 FILLER_37_109
*1609 FILLER_37_11
*1610 FILLER_37_113
*1611 FILLER_37_125
*1612 FILLER_37_137
*1613 FILLER_37_146
*1614 FILLER_37_158
*1615 FILLER_37_166
*1616 FILLER_37_169
*1617 FILLER_37_179
*1618 FILLER_37_191
*1619 FILLER_37_195
*1620 FILLER_37_203
*1621 FILLER_37_211
*1622 FILLER_37_222
*1623 FILLER_37_225
*1624 FILLER_37_237
*1625 FILLER_37_249
*1626 FILLER_37_261
*1627 FILLER_37_268
*1628 FILLER_37_272
*1629 FILLER_37_277
*1630 FILLER_37_286
*1631 FILLER_37_31
*1632 FILLER_37_43
*1633 FILLER_37_53
*1634 FILLER_37_57
*1635 FILLER_37_61
*1636 FILLER_37_69
*1637 FILLER_37_7
*1638 FILLER_37_77
*1639 FILLER_37_81
*1640 FILLER_37_87
*1641 FILLER_38_108
*1642 FILLER_38_120
*1643 FILLER_38_135
*1644 FILLER_38_139
*1645 FILLER_38_141
*1646 FILLER_38_15
*1647 FILLER_38_153
*1648 FILLER_38_165
*1649 FILLER_38_177
*1650 FILLER_38_197
*1651 FILLER_38_213
*1652 FILLER_38_225
*1653 FILLER_38_231
*1654 FILLER_38_242
*1655 FILLER_38_248
*1656 FILLER_38_27
*1657 FILLER_38_273
*1658 FILLER_38_281
*1659 FILLER_38_289
*1660 FILLER_38_29
*1661 FILLER_38_3
*1662 FILLER_38_33
*1663 FILLER_38_37
*1664 FILLER_38_52
*1665 FILLER_38_78
*1666 FILLER_38_85
*1667 FILLER_39_108
*1668 FILLER_39_113
*1669 FILLER_39_134
*1670 FILLER_39_146
*1671 FILLER_39_158
*1672 FILLER_39_162
*1673 FILLER_39_186
*1674 FILLER_39_196
*1675 FILLER_39_203
*1676 FILLER_39_215
*1677 FILLER_39_223
*1678 FILLER_39_248
*1679 FILLER_39_256
*1680 FILLER_39_269
*1681 FILLER_39_277
*1682 FILLER_39_28
*1683 FILLER_39_281
*1684 FILLER_39_50
*1685 FILLER_39_57
*1686 FILLER_39_69
*1687 FILLER_39_81
*1688 FILLER_39_87
*1689 FILLER_39_96
*1690 FILLER_3_105
*1691 FILLER_3_111
*1692 FILLER_3_113
*1693 FILLER_3_125
*1694 FILLER_3_137
*1695 FILLER_3_149
*1696 FILLER_3_15
*1697 FILLER_3_161
*1698 FILLER_3_167
*1699 FILLER_3_169
*1700 FILLER_3_181
*1701 FILLER_3_193
*1702 FILLER_3_205
*1703 FILLER_3_217
*1704 FILLER_3_223
*1705 FILLER_3_225
*1706 FILLER_3_237
*1707 FILLER_3_249
*1708 FILLER_3_261
*1709 FILLER_3_27
*1710 FILLER_3_273
*1711 FILLER_3_279
*1712 FILLER_3_281
*1713 FILLER_3_289
*1714 FILLER_3_3
*1715 FILLER_3_39
*1716 FILLER_3_51
*1717 FILLER_3_55
*1718 FILLER_3_57
*1719 FILLER_3_69
*1720 FILLER_3_81
*1721 FILLER_3_93
*1722 FILLER_40_103
*1723 FILLER_40_115
*1724 FILLER_40_138
*1725 FILLER_40_146
*1726 FILLER_40_189
*1727 FILLER_40_195
*1728 FILLER_40_218
*1729 FILLER_40_22
*1730 FILLER_40_257
*1731 FILLER_40_48
*1732 FILLER_40_60
*1733 FILLER_40_71
*1734 FILLER_40_83
*1735 FILLER_41_108
*1736 FILLER_41_113
*1737 FILLER_41_132
*1738 FILLER_41_144
*1739 FILLER_41_15
*1740 FILLER_41_150
*1741 FILLER_41_161
*1742 FILLER_41_180
*1743 FILLER_41_192
*1744 FILLER_41_204
*1745 FILLER_41_216
*1746 FILLER_41_225
*1747 FILLER_41_250
*1748 FILLER_41_27
*1749 FILLER_41_284
*1750 FILLER_41_3
*1751 FILLER_41_31
*1752 FILLER_41_39
*1753 FILLER_41_51
*1754 FILLER_41_55
*1755 FILLER_41_57
*1756 FILLER_41_69
*1757 FILLER_41_73
*1758 FILLER_41_88
*1759 FILLER_41_94
*1760 FILLER_42_102
*1761 FILLER_42_11
*1762 FILLER_42_114
*1763 FILLER_42_129
*1764 FILLER_42_137
*1765 FILLER_42_141
*1766 FILLER_42_149
*1767 FILLER_42_166
*1768 FILLER_42_178
*1769 FILLER_42_190
*1770 FILLER_42_197
*1771 FILLER_42_209
*1772 FILLER_42_219
*1773 FILLER_42_231
*1774 FILLER_42_245
*1775 FILLER_42_251
*1776 FILLER_42_253
*1777 FILLER_42_26
*1778 FILLER_42_265
*1779 FILLER_42_284
*1780 FILLER_42_29
*1781 FILLER_42_3
*1782 FILLER_42_41